  
       XFOIL         Version 6.99
  
 Calculated polar for: NACA 65-410                                     
  
 1 1 Reynolds number fixed          Mach number fixed         
  
 xtrf =   1.000 (top)        1.000 (bottom)  
 Mach =   0.200     Re =     4.000 e 6     Ncrit =   6.000
  
   alpha    CL        CD       CDp       CM     Top_Xtr  Bot_Xtr
  ------ -------- --------- --------- -------- -------- --------
  -5.000  -0.2196   0.00664   0.00191  -0.0806   0.7429   0.0109
  -4.850  -0.2023   0.00659   0.00184  -0.0807   0.7388   0.0111
  -4.700  -0.1848   0.00654   0.00178  -0.0808   0.7355   0.0112
  -4.550  -0.1673   0.00648   0.00171  -0.0809   0.7324   0.0113
  -4.400  -0.1499   0.00639   0.00160  -0.0810   0.7290   0.0116
  -4.250  -0.1325   0.00631   0.00149  -0.0810   0.7253   0.0124
  -4.100  -0.1151   0.00624   0.00141  -0.0811   0.7219   0.0129
  -3.950  -0.0976   0.00617   0.00134  -0.0813   0.7189   0.0134
  -3.800  -0.0801   0.00611   0.00128  -0.0814   0.7154   0.0140
  -3.650  -0.0627   0.00606   0.00122  -0.0815   0.7116   0.0146
  -3.500  -0.0453   0.00601   0.00116  -0.0816   0.7080   0.0151
  -3.350  -0.0277   0.00596   0.00111  -0.0817   0.7051   0.0155
  -3.200  -0.0102   0.00592   0.00106  -0.0819   0.7017   0.0158
  -3.050   0.0073   0.00589   0.00101  -0.0820   0.6981   0.0159
  -2.900   0.0247   0.00586   0.00097  -0.0821   0.6943   0.0161
  -2.750   0.0423   0.00580   0.00090  -0.0822   0.6915   0.0176
  -2.600   0.0598   0.00575   0.00086  -0.0824   0.6882   0.0197
  -2.450   0.0773   0.00571   0.00082  -0.0825   0.6845   0.0212
  -2.300   0.0947   0.00568   0.00079  -0.0826   0.6808   0.0223
  -2.150   0.1123   0.00565   0.00075  -0.0828   0.6780   0.0229
  -2.000   0.1298   0.00562   0.00072  -0.0829   0.6749   0.0233
  -1.850   0.1474   0.00559   0.00069  -0.0831   0.6715   0.0265
  -1.700   0.1648   0.00555   0.00066  -0.0832   0.6679   0.0297
  -1.550   0.1823   0.00552   0.00064  -0.0833   0.6648   0.0324
  -1.400   0.1999   0.00549   0.00061  -0.0835   0.6622   0.0367
  -1.250   0.2174   0.00545   0.00059  -0.0837   0.6591   0.0443
  -1.100   0.2349   0.00536   0.00056  -0.0838   0.6558   0.0701
  -0.950   0.2524   0.00527   0.00054  -0.0840   0.6522   0.1008
  -0.800   0.2699   0.00509   0.00051  -0.0843   0.6490   0.1622
  -0.650   0.2874   0.00493   0.00049  -0.0846   0.6445   0.2190
  -0.350   0.3223   0.00445   0.00043  -0.0853   0.6331   0.3954
  -0.200   0.3397   0.00422   0.00041  -0.0856   0.6266   0.4814
  -0.050   0.3571   0.00407   0.00041  -0.0859   0.6211   0.5462
   0.100   0.3745   0.00402   0.00042  -0.0861   0.6141   0.5748
   0.250   0.3916   0.00402   0.00044  -0.0862   0.6008   0.5989
   0.400   0.4087   0.00403   0.00046  -0.0862   0.5899   0.6196
   0.550   0.4258   0.00406   0.00048  -0.0863   0.5786   0.6336
   0.700   0.4428   0.00411   0.00051  -0.0864   0.5648   0.6418
   0.850   0.4596   0.00419   0.00054  -0.0864   0.5470   0.6490
   1.000   0.4760   0.00430   0.00058  -0.0863   0.5229   0.6547
   1.150   0.4912   0.00454   0.00066  -0.0861   0.4765   0.6598
   1.300   0.5043   0.00501   0.00082  -0.0855   0.3933   0.6633
   1.450   0.5183   0.00540   0.00097  -0.0851   0.3247   0.6664
   1.600   0.5335   0.00566   0.00107  -0.0849   0.2799   0.6703
   1.750   0.5476   0.00604   0.00122  -0.0845   0.2125   0.6741
   1.900   0.5620   0.00640   0.00136  -0.0842   0.1520   0.6776
   2.050   0.5775   0.00664   0.00147  -0.0840   0.1139   0.6807
   2.200   0.5935   0.00682   0.00157  -0.0838   0.0878   0.6847
   2.350   0.6097   0.00697   0.00165  -0.0838   0.0666   0.6887
   2.500   0.6256   0.00716   0.00175  -0.0836   0.0432   0.6921
   2.650   0.6422   0.00728   0.00184  -0.0836   0.0329   0.6954
   2.800   0.6590   0.00735   0.00191  -0.0836   0.0301   0.6995
   2.950   0.6759   0.00743   0.00198  -0.0836   0.0273   0.7035
   3.100   0.6928   0.00750   0.00205  -0.0836   0.0247   0.7069
   3.250   0.7098   0.00757   0.00212  -0.0836   0.0239   0.7102
   3.400   0.7267   0.00764   0.00219  -0.0836   0.0234   0.7144
   3.550   0.7436   0.00771   0.00227  -0.0836   0.0224   0.7183
   3.700   0.7602   0.00781   0.00235  -0.0836   0.0202   0.7218
   3.850   0.7768   0.00791   0.00244  -0.0836   0.0172   0.7252
   4.000   0.7936   0.00799   0.00253  -0.0835   0.0161   0.7292
   4.150   0.8102   0.00809   0.00262  -0.0835   0.0149   0.7330
   4.300   0.8268   0.00820   0.00272  -0.0834   0.0135   0.7365
   4.450   0.8432   0.00831   0.00283  -0.0833   0.0115   0.7401
   4.600   0.8599   0.00840   0.00293  -0.0833   0.0110   0.7444
   4.750   0.8765   0.00850   0.00303  -0.0832   0.0107   0.7486
   4.900   0.8930   0.00860   0.00314  -0.0831   0.0104   0.7521
   5.050   0.9095   0.00871   0.00326  -0.0830   0.0101   0.7562
   5.200   0.9258   0.00882   0.00338  -0.0829   0.0097   0.7604
   5.350   0.9422   0.00893   0.00350  -0.0828   0.0095   0.7644
   5.500   0.9585   0.00906   0.00363  -0.0827   0.0092   0.7678
   5.650   0.9748   0.00918   0.00377  -0.0825   0.0090   0.7722
   5.800   0.9910   0.00931   0.00391  -0.0824   0.0088   0.7766
   5.950   1.0071   0.00944   0.00406  -0.0822   0.0086   0.7807
   6.100   1.0231   0.00959   0.00424  -0.0820   0.0083   0.7852
   6.250   1.0390   0.00974   0.00442  -0.0818   0.0081   0.7904
   6.400   1.0547   0.00992   0.00462  -0.0815   0.0079   0.7951
   6.550   1.0701   0.01013   0.00488  -0.0812   0.0076   0.7999
   6.700   1.0862   0.01025   0.00501  -0.0810   0.0076   0.8052
   6.850   1.1022   0.01038   0.00516  -0.0808   0.0075   0.8099
   7.000   1.1181   0.01053   0.00532  -0.0806   0.0075   0.8145
   7.150   1.1342   0.01064   0.00545  -0.0804   0.0074   0.8196
   7.300   1.1501   0.01079   0.00561  -0.0801   0.0073   0.8242
   7.450   1.1656   0.01095   0.00580  -0.0798   0.0072   0.8291
   7.600   1.1812   0.01111   0.00598  -0.0796   0.0070   0.8347
   7.750   1.1967   0.01129   0.00618  -0.0792   0.0069   0.8396
   7.900   1.2120   0.01146   0.00639  -0.0789   0.0068   0.8452
   8.050   1.2274   0.01163   0.00658  -0.0786   0.0065   0.8510
   8.200   1.2428   0.01179   0.00676  -0.0782   0.0063   0.8562
   8.350   1.2580   0.01198   0.00697  -0.0778   0.0061   0.8623
   8.500   1.2730   0.01217   0.00718  -0.0774   0.0060   0.8682
   8.650   1.2878   0.01236   0.00740  -0.0770   0.0058   0.8753
   8.800   1.3024   0.01258   0.00765  -0.0765   0.0056   0.8824
   8.950   1.3165   0.01283   0.00794  -0.0759   0.0054   0.8906
   9.100   1.3300   0.01313   0.00829  -0.0752   0.0052   0.8988
   9.250   1.3435   0.01340   0.00862  -0.0745   0.0050   0.9078
   9.400   1.3578   0.01360   0.00885  -0.0739   0.0050   0.9151
   9.550   1.3719   0.01380   0.00909  -0.0733   0.0049   0.9229
   9.700   1.3856   0.01402   0.00935  -0.0727   0.0049   0.9302
   9.850   1.3991   0.01423   0.00960  -0.0719   0.0048   0.9388
  10.000   1.4118   0.01442   0.00983  -0.0710   0.0046   0.9503
  10.300   1.4376   0.01481   0.01031  -0.0694   0.0042   1.0000
  10.450   1.4513   0.01507   0.01057  -0.0687   0.0039   1.0000
  10.600   1.4645   0.01536   0.01086  -0.0680   0.0036   1.0000
  10.750   1.4772   0.01568   0.01120  -0.0672   0.0033   1.0000
  10.900   1.4893   0.01604   0.01160  -0.0663   0.0031   1.0000
  11.050   1.5014   0.01639   0.01198  -0.0654   0.0030   1.0000
  11.200   1.5132   0.01675   0.01237  -0.0645   0.0029   1.0000
  11.350   1.5241   0.01713   0.01278  -0.0634   0.0027   1.0000
  11.500   1.5335   0.01751   0.01320  -0.0620   0.0026   1.0000
  11.650   1.5420   0.01791   0.01364  -0.0605   0.0025   1.0000
  11.800   1.5500   0.01833   0.01411  -0.0589   0.0024   1.0000
  11.950   1.5578   0.01878   0.01459  -0.0573   0.0023   1.0000
  12.100   1.5650   0.01928   0.01513  -0.0557   0.0021   1.0000
  12.250   1.5722   0.01979   0.01569  -0.0541   0.0020   1.0000
  12.400   1.5788   0.02037   0.01633  -0.0525   0.0019   1.0000
  12.550   1.5849   0.02099   0.01701  -0.0509   0.0018   1.0000
  12.700   1.5915   0.02159   0.01766  -0.0494   0.0017   1.0000
  12.850   1.5979   0.02221   0.01835  -0.0479   0.0017   1.0000
  13.000   1.6038   0.02288   0.01908  -0.0464   0.0017   1.0000
  13.150   1.6095   0.02358   0.01984  -0.0449   0.0016   1.0000
  13.300   1.6144   0.02436   0.02069  -0.0434   0.0016   1.0000
  13.450   1.6195   0.02513   0.02152  -0.0420   0.0016   1.0000
  13.600   1.6237   0.02599   0.02245  -0.0405   0.0015   1.0000
  13.750   1.6271   0.02694   0.02347  -0.0391   0.0015   1.0000
  13.900   1.6302   0.02792   0.02453  -0.0377   0.0015   1.0000
  14.050   1.6329   0.02895   0.02563  -0.0363   0.0014   1.0000
  14.200   1.6349   0.03007   0.02683  -0.0350   0.0014   1.0000
  14.350   1.6360   0.03128   0.02813  -0.0337   0.0014   1.0000
  14.500   1.6364   0.03259   0.02952  -0.0324   0.0013   1.0000
  14.650   1.6362   0.03398   0.03099  -0.0312   0.0013   1.0000
  14.800   1.6351   0.03547   0.03257  -0.0301   0.0013   1.0000
  14.950   1.6331   0.03709   0.03428  -0.0290   0.0012   1.0000
  15.100   1.6302   0.03884   0.03612  -0.0280   0.0012   1.0000
  15.250   1.6265   0.04072   0.03809  -0.0272   0.0012   1.0000
  15.400   1.6217   0.04275   0.04021  -0.0265   0.0012   1.0000
  15.550   1.6167   0.04486   0.04242  -0.0259   0.0012   1.0000
  15.700   1.6108   0.04716   0.04480  -0.0255   0.0012   1.0000
  15.850   1.6021   0.04982   0.04756  -0.0253   0.0012   1.0000
  16.000   1.5953   0.05235   0.05018  -0.0252   0.0011   1.0000
  16.150   1.5865   0.05523   0.05314  -0.0254   0.0011   1.0000
  16.300   1.5760   0.05845   0.05646  -0.0259   0.0011   1.0000
  16.450   1.5659   0.06175   0.05984  -0.0266   0.0011   1.0000
  16.600   1.5553   0.06525   0.06343  -0.0276   0.0011   1.0000
  16.750   1.5430   0.06915   0.06742  -0.0289   0.0011   1.0000
  16.900   1.5298   0.07339   0.07174  -0.0306   0.0011   1.0000
  17.050   1.5159   0.07795   0.07639  -0.0327   0.0011   1.0000
  17.200   1.5028   0.08257   0.08109  -0.0350   0.0011   1.0000
  17.350   1.4897   0.08743   0.08603  -0.0377   0.0011   1.0000
  17.500   1.4750   0.09286   0.09154  -0.0409   0.0011   1.0000
  17.650   1.4584   0.09894   0.09770  -0.0447   0.0011   1.0000
  17.800   1.4431   0.10507   0.10389  -0.0487   0.0011   1.0000
  17.950   1.4257   0.11190   0.11079  -0.0532   0.0011   1.0000
  18.100   1.4068   0.11942   0.11838  -0.0583   0.0012   1.0000
  18.250   1.3833   0.12841   0.12744  -0.0644   0.0012   1.0000
  18.400   1.3465   0.14102   0.14014  -0.0727   0.0013   1.0000
  19.000   1.0635   0.24604   0.24534  -0.1354   0.0013   1.0000
  19.150   1.0670   0.24888   0.24818  -0.1371   0.0012   1.0000
  19.300   1.0707   0.25162   0.25093  -0.1388   0.0012   1.0000
  19.450   1.0737   0.25482   0.25412  -0.1407   0.0011   1.0000
  19.600   1.0779   0.25723   0.25653  -0.1422   0.0011   1.0000
  19.750   1.0815   0.26002   0.25932  -0.1439   0.0010   1.0000
  19.900   1.0854   0.26264   0.26195  -0.1456   0.0010   1.0000
  20.050   1.0894   0.26525   0.26456  -0.1472   0.0009   1.0000
  20.200   1.0931   0.26814   0.26744  -0.1489   0.0009   1.0000
  20.350   1.0953   0.27243   0.27173  -0.1510   0.0007   1.0000
  20.500   1.0992   0.27524   0.27454  -0.1527   0.0007   1.0000
  20.650   1.1036   0.27774   0.27704  -0.1543   0.0007   1.0000
  20.800   1.1077   0.28059   0.27988  -0.1560   0.0006   1.0000
  20.950   1.1109   0.28465   0.28394  -0.1579   0.0006   1.0000
  21.100   1.1150   0.28776   0.28705  -0.1596   0.0005   1.0000
  21.250   1.1191   0.29096   0.29024  -0.1613   0.0005   1.0000
  21.400   1.1235   0.29373   0.29301  -0.1629   0.0005   1.0000
  21.550   1.1280   0.29635   0.29563  -0.1645   0.0005   1.0000
  21.700   1.1326   0.29896   0.29824  -0.1660   0.0005   1.0000
  21.850   1.1372   0.30128   0.30056  -0.1676   0.0005   1.0000
  22.000   1.1417   0.30375   0.30303  -0.1691   0.0005   1.0000
  22.150   1.1464   0.30614   0.30542  -0.1706   0.0004   1.0000
  22.300   1.1509   0.30842   0.30771  -0.1721   0.0004   1.0000
  22.450   1.1556   0.31058   0.30987  -0.1736   0.0004   1.0000
  22.600   1.1602   0.31271   0.31200  -0.1751   0.0004   1.0000
  22.750   1.1649   0.31486   0.31415  -0.1766   0.0004   1.0000
  22.900   1.1695   0.31699   0.31627  -0.1781   0.0003   1.0000
  23.050   1.1741   0.31886   0.31815  -0.1796   0.0003   1.0000
