  
       XFOIL         Version 6.99
  
 Calculated polar for: NACA 65-210                                     
  
 1 1 Reynolds number fixed          Mach number fixed         
  
 xtrf =   1.000 (top)        1.000 (bottom)  
 Mach =   0.200     Re =     1.000 e 6     Ncrit =   9.000
  
   alpha    CL        CD       CDp       CM     Top_Xtr  Bot_Xtr
  ------ -------- --------- --------- -------- -------- --------
   0.000   0.1790   0.00501   0.00102  -0.0425   0.7416   0.7441
   2.000   0.4071   0.00529   0.00119  -0.0427   0.6385   0.7978
   4.000   0.5995   0.00961   0.00339  -0.0377   0.0273   0.8604
