  
       XFOIL         Version 6.99
  
 Calculated polar for: NACA 65-410                                     
  
 1 1 Reynolds number fixed          Mach number fixed         
  
 xtrf =   1.000 (top)        1.000 (bottom)  
 Mach =   0.200     Re =     5.000 e 6     Ncrit =   7.000
  
   alpha    CL        CD       CDp       CM     Top_Xtr  Bot_Xtr
  ------ -------- --------- --------- -------- -------- --------
  -5.000  -0.2189   0.00632   0.00178  -0.0809   0.7456   0.0109
  -4.850  -0.2015   0.00627   0.00173  -0.0810   0.7419   0.0111
  -4.700  -0.1841   0.00623   0.00167  -0.0810   0.7380   0.0112
  -4.550  -0.1665   0.00618   0.00161  -0.0811   0.7351   0.0113
  -4.400  -0.1490   0.00610   0.00152  -0.0813   0.7319   0.0115
  -4.250  -0.1316   0.00601   0.00140  -0.0813   0.7281   0.0122
  -4.100  -0.1142   0.00594   0.00132  -0.0814   0.7239   0.0129
  -3.950  -0.0967   0.00588   0.00125  -0.0816   0.7209   0.0134
  -3.800  -0.0791   0.00582   0.00119  -0.0817   0.7176   0.0138
  -3.650  -0.0616   0.00577   0.00113  -0.0818   0.7138   0.0144
  -3.500  -0.0442   0.00573   0.00108  -0.0819   0.7098   0.0150
  -3.350  -0.0266   0.00568   0.00103  -0.0820   0.7068   0.0154
  -3.200  -0.0091   0.00564   0.00099  -0.0822   0.7037   0.0158
  -3.050   0.0085   0.00561   0.00095  -0.0823   0.6999   0.0159
  -2.900   0.0259   0.00558   0.00091  -0.0824   0.6957   0.0160
  -2.750   0.0435   0.00553   0.00084  -0.0826   0.6926   0.0173
  -2.600   0.0610   0.00548   0.00080  -0.0827   0.6895   0.0195
  -2.450   0.0786   0.00544   0.00076  -0.0828   0.6859   0.0213
  -2.300   0.0960   0.00541   0.00073  -0.0830   0.6820   0.0224
  -2.150   0.1136   0.00539   0.00070  -0.0831   0.6788   0.0229
  -2.000   0.1312   0.00536   0.00067  -0.0833   0.6760   0.0231
  -1.850   0.1487   0.00533   0.00064  -0.0834   0.6727   0.0266
  -1.700   0.1662   0.00529   0.00061  -0.0836   0.6691   0.0301
  -1.550   0.1837   0.00527   0.00059  -0.0837   0.6654   0.0328
  -1.400   0.2013   0.00523   0.00057  -0.0839   0.6631   0.0383
  -1.250   0.2189   0.00519   0.00055  -0.0840   0.6600   0.0469
  -1.100   0.2364   0.00510   0.00052  -0.0842   0.6558   0.0758
  -0.950   0.2538   0.00501   0.00050  -0.0844   0.6507   0.1087
  -0.800   0.2713   0.00484   0.00047  -0.0847   0.6462   0.1689
  -0.500   0.3062   0.00450   0.00043  -0.0852   0.6345   0.2977
  -0.350   0.3237   0.00425   0.00040  -0.0856   0.6292   0.3905
  -0.200   0.3411   0.00404   0.00038  -0.0859   0.6238   0.4704
  -0.050   0.3587   0.00389   0.00037  -0.0862   0.6194   0.5308
   0.100   0.3758   0.00387   0.00039  -0.0864   0.6066   0.5641
   0.250   0.3929   0.00386   0.00041  -0.0865   0.5939   0.5881
   0.400   0.4102   0.00386   0.00042  -0.0866   0.5837   0.6084
   0.550   0.4273   0.00388   0.00045  -0.0867   0.5715   0.6253
   0.700   0.4444   0.00393   0.00047  -0.0867   0.5585   0.6355
   0.850   0.4610   0.00402   0.00051  -0.0867   0.5384   0.6436
   1.000   0.4772   0.00416   0.00056  -0.0866   0.5085   0.6502
   1.150   0.4916   0.00448   0.00067  -0.0863   0.4466   0.6574
   1.300   0.5053   0.00489   0.00081  -0.0858   0.3711   0.6628
   1.450   0.5207   0.00513   0.00091  -0.0856   0.3285   0.6667
   1.750   0.5492   0.00587   0.00119  -0.0849   0.1954   0.6750
   1.900   0.5645   0.00612   0.00130  -0.0847   0.1516   0.6783
   2.050   0.5806   0.00630   0.00138  -0.0846   0.1234   0.6817
   2.200   0.5963   0.00651   0.00149  -0.0844   0.0913   0.6859
   2.350   0.6125   0.00667   0.00157  -0.0843   0.0684   0.6899
   2.500   0.6284   0.00686   0.00167  -0.0842   0.0437   0.6932
   2.650   0.6450   0.00697   0.00175  -0.0841   0.0331   0.6969
   2.800   0.6619   0.00705   0.00182  -0.0841   0.0302   0.7012
   2.950   0.6788   0.00713   0.00189  -0.0842   0.0273   0.7051
   3.100   0.6958   0.00720   0.00195  -0.0842   0.0245   0.7083
   3.250   0.7128   0.00726   0.00202  -0.0842   0.0239   0.7122
   3.400   0.7298   0.00732   0.00209  -0.0842   0.0235   0.7163
   3.550   0.7467   0.00739   0.00216  -0.0842   0.0225   0.7202
   3.700   0.7634   0.00749   0.00224  -0.0842   0.0199   0.7233
   3.850   0.7801   0.00758   0.00233  -0.0842   0.0171   0.7275
   4.000   0.7969   0.00766   0.00241  -0.0842   0.0161   0.7317
   4.150   0.8136   0.00775   0.00250  -0.0841   0.0148   0.7354
   4.450   0.8468   0.00796   0.00270  -0.0840   0.0112   0.7427
   4.600   0.8635   0.00805   0.00279  -0.0840   0.0109   0.7468
   4.750   0.8801   0.00815   0.00289  -0.0839   0.0106   0.7506
   4.900   0.8967   0.00825   0.00299  -0.0838   0.0103   0.7542
   5.050   0.9132   0.00835   0.00310  -0.0837   0.0099   0.7589
   5.200   0.9297   0.00846   0.00321  -0.0836   0.0096   0.7632
   5.350   0.9462   0.00857   0.00333  -0.0835   0.0094   0.7668
   5.500   0.9626   0.00868   0.00346  -0.0834   0.0091   0.7712
   5.650   0.9790   0.00880   0.00359  -0.0833   0.0089   0.7757
   5.800   0.9952   0.00893   0.00373  -0.0831   0.0087   0.7798
   5.950   1.0115   0.00905   0.00388  -0.0830   0.0085   0.7837
   6.100   1.0275   0.00920   0.00405  -0.0828   0.0083   0.7885
   6.250   1.0435   0.00935   0.00423  -0.0826   0.0081   0.7932
   6.400   1.0591   0.00955   0.00446  -0.0823   0.0077   0.7974
   6.550   1.0751   0.00969   0.00463  -0.0821   0.0076   0.8029
   6.700   1.0913   0.00981   0.00476  -0.0819   0.0076   0.8080
   6.850   1.1074   0.00993   0.00490  -0.0817   0.0075   0.8126
   7.000   1.1236   0.01005   0.00503  -0.0815   0.0075   0.8181
   7.150   1.1398   0.01016   0.00514  -0.0814   0.0074   0.8230
   7.300   1.1557   0.01030   0.00531  -0.0811   0.0073   0.8276
   7.450   1.1715   0.01046   0.00548  -0.0809   0.0072   0.8329
   7.600   1.1873   0.01061   0.00565  -0.0806   0.0070   0.8377
   7.750   1.2029   0.01077   0.00583  -0.0803   0.0069   0.8424
   7.900   1.2187   0.01091   0.00600  -0.0800   0.0067   0.8481
   8.050   1.2343   0.01107   0.00617  -0.0797   0.0065   0.8533
   8.200   1.2498   0.01123   0.00635  -0.0794   0.0063   0.8593
   8.350   1.2651   0.01141   0.00655  -0.0790   0.0061   0.8655
   8.500   1.2803   0.01159   0.00676  -0.0787   0.0060   0.8715
   8.650   1.2953   0.01179   0.00698  -0.0782   0.0058   0.8786
   8.800   1.3100   0.01200   0.00722  -0.0778   0.0056   0.8856
   8.950   1.3242   0.01225   0.00751  -0.0772   0.0054   0.8940
   9.100   1.3377   0.01256   0.00788  -0.0765   0.0051   0.9025
   9.250   1.3518   0.01280   0.00816  -0.0759   0.0050   0.9108
   9.400   1.3665   0.01297   0.00836  -0.0754   0.0050   0.9185
   9.550   1.3814   0.01312   0.00854  -0.0749   0.0049   0.9255
   9.700   1.3954   0.01332   0.00877  -0.0743   0.0049   0.9333
  10.000   1.4230   0.01366   0.00917  -0.0729   0.0046   0.9510
  10.150   1.4363   0.01380   0.00937  -0.0721   0.0044   0.9855
  10.450   1.4633   0.01428   0.00987  -0.0707   0.0039   1.0000
  10.600   1.4769   0.01455   0.01015  -0.0700   0.0036   1.0000
  10.750   1.4897   0.01488   0.01050  -0.0692   0.0032   1.0000
  10.900   1.5025   0.01521   0.01086  -0.0684   0.0031   1.0000
  11.050   1.5153   0.01553   0.01120  -0.0676   0.0030   1.0000
  11.200   1.5276   0.01587   0.01157  -0.0667   0.0029   1.0000
  11.350   1.5395   0.01623   0.01196  -0.0658   0.0027   1.0000
  11.500   1.5509   0.01661   0.01238  -0.0648   0.0025   1.0000
  11.650   1.5614   0.01701   0.01280  -0.0636   0.0024   1.0000
  11.800   1.5701   0.01741   0.01324  -0.0621   0.0023   1.0000
  11.950   1.5781   0.01782   0.01369  -0.0604   0.0022   1.0000
  12.100   1.5852   0.01829   0.01420  -0.0587   0.0020   1.0000
  12.250   1.5924   0.01876   0.01472  -0.0570   0.0019   1.0000
  12.400   1.5987   0.01932   0.01534  -0.0552   0.0017   1.0000
  12.550   1.6055   0.01985   0.01592  -0.0536   0.0017   1.0000
  12.700   1.6130   0.02033   0.01645  -0.0521   0.0017   1.0000
  12.850   1.6197   0.02089   0.01706  -0.0506   0.0017   1.0000
  13.000   1.6261   0.02148   0.01771  -0.0490   0.0016   1.0000
  13.150   1.6324   0.02211   0.01839  -0.0475   0.0016   1.0000
  13.300   1.6377   0.02280   0.01915  -0.0459   0.0016   1.0000
  13.450   1.6433   0.02350   0.01990  -0.0445   0.0015   1.0000
  13.600   1.6483   0.02426   0.02072  -0.0430   0.0015   1.0000
  13.750   1.6523   0.02511   0.02164  -0.0414   0.0015   1.0000
  13.900   1.6562   0.02598   0.02258  -0.0400   0.0014   1.0000
  14.050   1.6595   0.02692   0.02358  -0.0385   0.0014   1.0000
  14.200   1.6623   0.02792   0.02466  -0.0371   0.0014   1.0000
  14.350   1.6643   0.02900   0.02582  -0.0357   0.0013   1.0000
  14.500   1.6655   0.03018   0.02706  -0.0343   0.0013   1.0000
  14.650   1.6665   0.03139   0.02836  -0.0330   0.0013   1.0000
  14.800   1.6664   0.03273   0.02977  -0.0317   0.0012   1.0000
  14.950   1.6655   0.03418   0.03130  -0.0305   0.0012   1.0000
  15.100   1.6637   0.03573   0.03294  -0.0294   0.0012   1.0000
  15.250   1.6613   0.03740   0.03469  -0.0283   0.0012   1.0000
  15.400   1.6578   0.03921   0.03659  -0.0274   0.0011   1.0000
  15.550   1.6542   0.04108   0.03854  -0.0266   0.0011   1.0000
  15.700   1.6494   0.04311   0.04065  -0.0259   0.0011   1.0000
  15.850   1.6422   0.04547   0.04312  -0.0254   0.0011   1.0000
  16.000   1.6367   0.04772   0.04545  -0.0250   0.0011   1.0000
  16.150   1.6291   0.05028   0.04808  -0.0249   0.0011   1.0000
  16.300   1.6200   0.05311   0.05101  -0.0249   0.0011   1.0000
  16.450   1.6110   0.05605   0.05404  -0.0252   0.0011   1.0000
  16.600   1.6018   0.05914   0.05721  -0.0257   0.0011   1.0000
  16.750   1.5907   0.06261   0.06077  -0.0265   0.0010   1.0000
  16.900   1.5778   0.06647   0.06471  -0.0277   0.0010   1.0000
  17.050   1.5652   0.07048   0.06881  -0.0291   0.0010   1.0000
  17.200   1.5530   0.07462   0.07303  -0.0309   0.0010   1.0000
  17.350   1.5411   0.07890   0.07739  -0.0329   0.0010   1.0000
  17.500   1.5278   0.08359   0.08215  -0.0353   0.0010   1.0000
  17.650   1.5120   0.08898   0.08762  -0.0383   0.0010   1.0000
  17.800   1.4983   0.09425   0.09296  -0.0414   0.0010   1.0000
  17.950   1.4828   0.10012   0.09891  -0.0451   0.0011   1.0000
  18.100   1.4664   0.10646   0.10531  -0.0492   0.0011   1.0000
  18.250   1.4494   0.11320   0.11212  -0.0537   0.0011   1.0000
  18.400   1.4309   0.12056   0.11954  -0.0587   0.0011   1.0000
  18.550   1.4083   0.12916   0.12822  -0.0646   0.0011   1.0000
  18.700   1.3799   0.13944   0.13857  -0.0715   0.0012   1.0000
