  
       XFOIL         Version 6.99
  
 Calculated polar for: NACA 65-410                                     
  
 1 1 Reynolds number fixed          Mach number fixed         
  
 xtrf =   1.000 (top)        1.000 (bottom)  
 Mach =   0.200     Re =     2.200 e 6     Ncrit =   6.000
  
   alpha    CL        CD       CDp       CM     Top_Xtr  Bot_Xtr
  ------ -------- --------- --------- -------- -------- --------
  -5.000  -0.2184   0.00770   0.00261  -0.0805   0.7786   0.0113
  -4.850  -0.2014   0.00749   0.00236  -0.0805   0.7751   0.0122
  -4.700  -0.1842   0.00739   0.00225  -0.0806   0.7713   0.0129
  -4.550  -0.1671   0.00732   0.00217  -0.0806   0.7675   0.0135
  -4.400  -0.1498   0.00724   0.00208  -0.0807   0.7641   0.0140
  -4.250  -0.1325   0.00716   0.00198  -0.0808   0.7605   0.0144
  -4.100  -0.1152   0.00708   0.00188  -0.0809   0.7565   0.0148
  -3.950  -0.0980   0.00702   0.00180  -0.0809   0.7525   0.0152
  -3.800  -0.0806   0.00696   0.00172  -0.0810   0.7492   0.0156
  -3.650  -0.0633   0.00689   0.00163  -0.0811   0.7457   0.0158
  -3.500  -0.0459   0.00683   0.00156  -0.0812   0.7420   0.0160
  -3.350  -0.0287   0.00674   0.00144  -0.0813   0.7385   0.0165
  -3.200  -0.0113   0.00664   0.00132  -0.0814   0.7353   0.0179
  -3.050   0.0061   0.00657   0.00124  -0.0815   0.7319   0.0190
  -2.900   0.0235   0.00651   0.00118  -0.0816   0.7282   0.0203
  -2.750   0.0408   0.00646   0.00113  -0.0817   0.7245   0.0214
  -2.600   0.0582   0.00642   0.00107  -0.0818   0.7212   0.0223
  -2.450   0.0757   0.00638   0.00102  -0.0820   0.7179   0.0229
  -2.300   0.0931   0.00634   0.00098  -0.0821   0.7143   0.0235
  -2.150   0.1105   0.00629   0.00092  -0.0822   0.7108   0.0267
  -2.000   0.1278   0.00625   0.00088  -0.0823   0.7075   0.0297
  -1.850   0.1453   0.00620   0.00083  -0.0825   0.7042   0.0323
  -1.700   0.1628   0.00617   0.00080  -0.0826   0.7006   0.0363
  -1.550   0.1801   0.00612   0.00077  -0.0827   0.6970   0.0439
  -1.400   0.1975   0.00602   0.00073  -0.0829   0.6937   0.0698
  -1.250   0.2149   0.00585   0.00069  -0.0831   0.6906   0.1161
  -1.100   0.2323   0.00561   0.00064  -0.0834   0.6872   0.1890
  -0.950   0.2497   0.00532   0.00059  -0.0838   0.6837   0.2804
  -0.800   0.2669   0.00501   0.00054  -0.0842   0.6803   0.3796
  -0.650   0.2843   0.00459   0.00050  -0.0847   0.6775   0.5130
  -0.500   0.3018   0.00444   0.00050  -0.0849   0.6743   0.5689
  -0.350   0.3193   0.00437   0.00051  -0.0851   0.6710   0.6006
  -0.200   0.3368   0.00435   0.00053  -0.0852   0.6676   0.6198
  -0.050   0.3542   0.00433   0.00054  -0.0854   0.6643   0.6357
   0.100   0.3717   0.00429   0.00056  -0.0855   0.6599   0.6563
   0.250   0.3890   0.00430   0.00057  -0.0856   0.6543   0.6686
   0.400   0.4063   0.00432   0.00059  -0.0857   0.6474   0.6741
   0.550   0.4233   0.00438   0.00060  -0.0857   0.6355   0.6782
   0.700   0.4405   0.00442   0.00062  -0.0858   0.6257   0.6816
   0.850   0.4578   0.00445   0.00064  -0.0859   0.6192   0.6854
   1.000   0.4750   0.00449   0.00066  -0.0859   0.6111   0.6893
   1.150   0.4921   0.00454   0.00068  -0.0860   0.5998   0.6929
   1.300   0.5089   0.00461   0.00071  -0.0860   0.5856   0.6963
   1.450   0.5254   0.00472   0.00076  -0.0859   0.5664   0.7002
   1.600   0.5412   0.00489   0.00082  -0.0858   0.5342   0.7040
   1.750   0.5552   0.00524   0.00093  -0.0853   0.4717   0.7076
   1.900   0.5685   0.00567   0.00109  -0.0848   0.4016   0.7112
   2.050   0.5805   0.00625   0.00132  -0.0841   0.3107   0.7152
   2.200   0.5930   0.00679   0.00153  -0.0834   0.2246   0.7191
   2.350   0.6071   0.00717   0.00170  -0.0830   0.1678   0.7226
   2.500   0.6222   0.00743   0.00183  -0.0828   0.1303   0.7263
   2.650   0.6371   0.00772   0.00198  -0.0825   0.0916   0.7303
   2.800   0.6525   0.00796   0.00211  -0.0823   0.0624   0.7343
   2.950   0.6682   0.00816   0.00224  -0.0821   0.0420   0.7379
   3.100   0.6845   0.00828   0.00233  -0.0820   0.0333   0.7417
   3.250   0.7011   0.00838   0.00243  -0.0820   0.0305   0.7457
   3.400   0.7176   0.00849   0.00252  -0.0819   0.0275   0.7495
   3.550   0.7343   0.00858   0.00262  -0.0819   0.0245   0.7532
   3.700   0.7510   0.00866   0.00272  -0.0818   0.0238   0.7574
   3.850   0.7676   0.00874   0.00282  -0.0818   0.0231   0.7618
   4.000   0.7842   0.00885   0.00292  -0.0817   0.0217   0.7659
   4.150   0.8004   0.00897   0.00303  -0.0816   0.0193   0.7699
   4.300   0.8167   0.00910   0.00316  -0.0815   0.0165   0.7743
   4.450   0.8331   0.00920   0.00327  -0.0814   0.0158   0.7786
   4.600   0.8495   0.00931   0.00340  -0.0813   0.0148   0.7825
   4.750   0.8656   0.00944   0.00353  -0.0812   0.0136   0.7869
   4.900   0.8817   0.00958   0.00367  -0.0810   0.0126   0.7915
   5.050   0.8976   0.00975   0.00385  -0.0808   0.0115   0.7960
   5.200   0.9136   0.00988   0.00401  -0.0806   0.0112   0.8008
   5.350   0.9296   0.01001   0.00417  -0.0804   0.0110   0.8061
   5.500   0.9457   0.01015   0.00433  -0.0803   0.0109   0.8108
   5.650   0.9615   0.01030   0.00451  -0.0800   0.0107   0.8157
   5.800   0.9773   0.01045   0.00469  -0.0798   0.0105   0.8208
   5.950   0.9931   0.01061   0.00487  -0.0796   0.0104   0.8254
   6.100   1.0087   0.01077   0.00507  -0.0793   0.0101   0.8303
   6.250   1.0242   0.01095   0.00527  -0.0790   0.0100   0.8354
   6.550   1.0549   0.01131   0.00569  -0.0784   0.0096   0.8458
   6.700   1.0702   0.01149   0.00590  -0.0781   0.0094   0.8515
   6.850   1.0854   0.01167   0.00611  -0.0777   0.0090   0.8569
   7.000   1.1003   0.01187   0.00634  -0.0773   0.0088   0.8631
   7.300   1.1290   0.01238   0.00692  -0.0763   0.0082   0.8754
   7.450   1.1422   0.01275   0.00735  -0.0756   0.0079   0.8822
   7.600   1.1551   0.01310   0.00777  -0.0748   0.0076   0.8896
   7.900   1.1832   0.01354   0.00830  -0.0736   0.0075   0.9057
   8.050   1.1971   0.01377   0.00858  -0.0730   0.0074   0.9135
   8.200   1.2108   0.01399   0.00885  -0.0724   0.0073   0.9218
   8.350   1.2239   0.01424   0.00914  -0.0716   0.0072   0.9297
   8.500   1.2368   0.01449   0.00944  -0.0708   0.0071   0.9387
   8.650   1.2494   0.01466   0.00965  -0.0699   0.0069   0.9499
   8.800   1.2617   0.01486   0.00993  -0.0690   0.0067   0.9761
   8.950   1.2760   0.01509   0.01018  -0.0685   0.0065   1.0000
   9.100   1.2898   0.01537   0.01048  -0.0679   0.0063   1.0000
   9.250   1.3036   0.01564   0.01078  -0.0674   0.0062   1.0000
   9.400   1.3175   0.01590   0.01106  -0.0668   0.0060   1.0000
   9.550   1.3312   0.01616   0.01134  -0.0662   0.0058   1.0000
   9.700   1.3446   0.01645   0.01165  -0.0656   0.0056   1.0000
   9.850   1.3574   0.01678   0.01201  -0.0649   0.0054   1.0000
  10.000   1.3689   0.01723   0.01249  -0.0640   0.0052   1.0000
  10.150   1.3795   0.01772   0.01304  -0.0629   0.0050   1.0000
  10.300   1.3917   0.01805   0.01341  -0.0621   0.0049   1.0000
  10.450   1.4027   0.01840   0.01380  -0.0610   0.0049   1.0000
  10.600   1.4129   0.01876   0.01420  -0.0598   0.0048   1.0000
  10.750   1.4229   0.01911   0.01459  -0.0586   0.0046   1.0000
  10.900   1.4323   0.01950   0.01502  -0.0573   0.0044   1.0000
  11.050   1.4423   0.01984   0.01539  -0.0561   0.0042   1.0000
  11.200   1.4514   0.02025   0.01585  -0.0549   0.0041   1.0000
  11.350   1.4623   0.02053   0.01614  -0.0539   0.0038   1.0000
  11.500   1.4723   0.02088   0.01650  -0.0528   0.0036   1.0000
  11.650   1.4810   0.02135   0.01701  -0.0515   0.0034   1.0000
  11.800   1.4886   0.02191   0.01762  -0.0502   0.0032   1.0000
  11.950   1.4951   0.02258   0.01837  -0.0487   0.0031   1.0000
  12.100   1.5019   0.02322   0.01907  -0.0473   0.0030   1.0000
  12.250   1.5079   0.02395   0.01987  -0.0459   0.0030   1.0000
  12.400   1.5140   0.02466   0.02066  -0.0445   0.0029   1.0000
  12.550   1.5193   0.02547   0.02154  -0.0431   0.0028   1.0000
  12.700   1.5248   0.02625   0.02240  -0.0418   0.0027   1.0000
  12.850   1.5293   0.02714   0.02336  -0.0404   0.0026   1.0000
  13.000   1.5333   0.02809   0.02440  -0.0391   0.0025   1.0000
  13.150   1.5375   0.02903   0.02541  -0.0378   0.0024   1.0000
  13.300   1.5393   0.03021   0.02669  -0.0364   0.0024   1.0000
  13.450   1.5428   0.03125   0.02780  -0.0353   0.0023   1.0000
  13.600   1.5445   0.03247   0.02911  -0.0340   0.0023   1.0000
  13.750   1.5456   0.03377   0.03049  -0.0329   0.0022   1.0000
  13.900   1.5455   0.03520   0.03202  -0.0317   0.0021   1.0000
  14.050   1.5454   0.03667   0.03358  -0.0307   0.0021   1.0000
  14.200   1.5432   0.03836   0.03537  -0.0296   0.0020   1.0000
  14.350   1.5398   0.04022   0.03734  -0.0287   0.0020   1.0000
  14.500   1.5351   0.04228   0.03950  -0.0279   0.0019   1.0000
  14.650   1.5296   0.04444   0.04177  -0.0272   0.0019   1.0000
  14.800   1.5227   0.04684   0.04429  -0.0266   0.0019   1.0000
  14.950   1.5132   0.04962   0.04719  -0.0263   0.0018   1.0000
  15.100   1.5047   0.05234   0.05002  -0.0262   0.0018   1.0000
  15.250   1.4933   0.05553   0.05332  -0.0264   0.0018   1.0000
  15.400   1.4810   0.05898   0.05689  -0.0269   0.0018   1.0000
  15.550   1.4701   0.06240   0.06041  -0.0276   0.0018   1.0000
  15.700   1.4586   0.06602   0.06413  -0.0286   0.0018   1.0000
  15.850   1.4436   0.07038   0.06860  -0.0302   0.0018   1.0000
  16.000   1.4315   0.07452   0.07282  -0.0319   0.0018   1.0000
  16.150   1.4177   0.07915   0.07755  -0.0341   0.0018   1.0000
  16.300   1.4038   0.08405   0.08254  -0.0367   0.0018   1.0000
  16.450   1.3899   0.08922   0.08779  -0.0397   0.0018   1.0000
  16.600   1.3763   0.09469   0.09334  -0.0430   0.0018   1.0000
  16.750   1.3617   0.10070   0.09942  -0.0469   0.0018   1.0000
  16.900   1.3465   0.10719   0.10598  -0.0512   0.0018   1.0000
  17.050   1.3291   0.11461   0.11348  -0.0563   0.0019   1.0000
  17.200   1.3093   0.12309   0.12203  -0.0619   0.0019   1.0000
