  
       XFOIL         Version 6.99
  
 Calculated polar for: NACA 65-410                                     
  
 1 1 Reynolds number fixed          Mach number fixed         
  
 xtrf =   1.000 (top)        1.000 (bottom)  
 Mach =   0.200     Re =     6.200 e 6     Ncrit =   6.000
  
   alpha    CL        CD       CDp       CM     Top_Xtr  Bot_Xtr
  ------ -------- --------- --------- -------- -------- --------
  -5.000  -0.2198   0.00609   0.00160  -0.0808   0.7176   0.0104
  -4.850  -0.2023   0.00604   0.00154  -0.0809   0.7141   0.0107
  -4.700  -0.1848   0.00599   0.00148  -0.0810   0.7101   0.0109
  -4.550  -0.1673   0.00594   0.00142  -0.0811   0.7070   0.0111
  -4.400  -0.1497   0.00589   0.00136  -0.0812   0.7042   0.0112
  -4.250  -0.1322   0.00584   0.00131  -0.0813   0.7005   0.0112
  -4.100  -0.1147   0.00581   0.00126  -0.0814   0.6964   0.0113
  -3.950  -0.0971   0.00575   0.00119  -0.0815   0.6932   0.0116
  -3.800  -0.0795   0.00568   0.00111  -0.0817   0.6905   0.0120
  -3.650  -0.0620   0.00563   0.00105  -0.0818   0.6872   0.0128
  -3.500  -0.0445   0.00558   0.00100  -0.0819   0.6833   0.0137
  -3.350  -0.0270   0.00554   0.00095  -0.0820   0.6795   0.0144
  -3.200  -0.0094   0.00549   0.00091  -0.0822   0.6770   0.0151
  -3.050   0.0082   0.00545   0.00087  -0.0823   0.6739   0.0155
  -2.900   0.0257   0.00542   0.00083  -0.0825   0.6703   0.0158
  -2.750   0.0432   0.00540   0.00080  -0.0826   0.6662   0.0160
  -2.600   0.0609   0.00536   0.00076  -0.0828   0.6638   0.0163
  -2.450   0.0785   0.00532   0.00072  -0.0829   0.6610   0.0187
  -2.300   0.0960   0.00528   0.00069  -0.0831   0.6578   0.0205
  -2.150   0.1135   0.00526   0.00066  -0.0832   0.6541   0.0219
  -2.000   0.1311   0.00523   0.00064  -0.0833   0.6508   0.0227
  -1.850   0.1487   0.00520   0.00061  -0.0835   0.6486   0.0230
  -1.700   0.1663   0.00518   0.00059  -0.0837   0.6459   0.0250
  -1.550   0.1839   0.00515   0.00057  -0.0838   0.6421   0.0284
  -1.400   0.2013   0.00514   0.00055  -0.0839   0.6370   0.0310
  -1.250   0.2189   0.00511   0.00053  -0.0841   0.6334   0.0333
  -1.100   0.2363   0.00509   0.00051  -0.0842   0.6274   0.0408
  -0.950   0.2537   0.00506   0.00050  -0.0844   0.6210   0.0538
  -0.800   0.2711   0.00499   0.00048  -0.0846   0.6150   0.0818
  -0.650   0.2885   0.00490   0.00047  -0.0847   0.6080   0.1211
  -0.500   0.3061   0.00480   0.00045  -0.0850   0.6041   0.1610
  -0.350   0.3236   0.00466   0.00044  -0.0852   0.5991   0.2167
  -0.200   0.3410   0.00449   0.00042  -0.0855   0.5932   0.2880
  -0.050   0.3581   0.00441   0.00042  -0.0857   0.5792   0.3403
   0.100   0.3750   0.00428   0.00042  -0.0859   0.5599   0.4176
   0.400   0.4087   0.00411   0.00045  -0.0863   0.5227   0.5502
   0.550   0.4251   0.00417   0.00049  -0.0863   0.4958   0.5770
   0.700   0.4408   0.00432   0.00056  -0.0862   0.4553   0.6002
   0.850   0.4555   0.00463   0.00067  -0.0859   0.3962   0.6079
   1.150   0.4850   0.00523   0.00089  -0.0853   0.2767   0.6234
   1.450   0.5164   0.00565   0.00107  -0.0850   0.1958   0.6384
   1.600   0.5314   0.00594   0.00118  -0.0848   0.1400   0.6448
   1.750   0.5474   0.00612   0.00127  -0.0846   0.1078   0.6490
   1.900   0.5636   0.00629   0.00135  -0.0846   0.0808   0.6527
   2.050   0.5800   0.00643   0.00143  -0.0845   0.0616   0.6568
   2.200   0.5962   0.00659   0.00151  -0.0844   0.0400   0.6605
   2.350   0.6131   0.00667   0.00157  -0.0844   0.0325   0.6635
   2.500   0.6301   0.00675   0.00163  -0.0844   0.0295   0.6665
   2.650   0.6471   0.00681   0.00169  -0.0845   0.0268   0.6708
   2.800   0.6642   0.00687   0.00174  -0.0845   0.0242   0.6747
   2.950   0.6813   0.00692   0.00180  -0.0846   0.0239   0.6778
   3.100   0.6984   0.00698   0.00186  -0.0846   0.0235   0.6808
   3.250   0.7154   0.00704   0.00192  -0.0847   0.0226   0.6852
   3.400   0.7322   0.00712   0.00199  -0.0847   0.0204   0.6891
   3.550   0.7490   0.00722   0.00207  -0.0846   0.0172   0.6924
   3.700   0.7659   0.00729   0.00214  -0.0847   0.0160   0.6953
   3.850   0.7827   0.00737   0.00222  -0.0847   0.0149   0.6997
   4.000   0.7994   0.00747   0.00230  -0.0846   0.0132   0.7037
   4.150   0.8162   0.00756   0.00239  -0.0846   0.0112   0.7071
   4.300   0.8330   0.00764   0.00247  -0.0846   0.0108   0.7104
   4.450   0.8497   0.00773   0.00256  -0.0845   0.0103   0.7146
   4.600   0.8664   0.00782   0.00265  -0.0845   0.0097   0.7185
   4.750   0.8830   0.00792   0.00275  -0.0844   0.0092   0.7217
   4.900   0.8997   0.00802   0.00285  -0.0844   0.0088   0.7247
   5.050   0.9163   0.00811   0.00295  -0.0843   0.0084   0.7290
   5.200   0.9328   0.00822   0.00307  -0.0842   0.0082   0.7331
   5.350   0.9494   0.00832   0.00318  -0.0841   0.0080   0.7366
   5.500   0.9658   0.00844   0.00331  -0.0840   0.0078   0.7402
   5.650   0.9822   0.00855   0.00345  -0.0839   0.0077   0.7447
   5.800   0.9986   0.00867   0.00358  -0.0837   0.0076   0.7486
   5.950   1.0151   0.00878   0.00370  -0.0836   0.0076   0.7518
   6.100   1.0315   0.00889   0.00382  -0.0835   0.0076   0.7555
   6.250   1.0479   0.00900   0.00395  -0.0834   0.0076   0.7598
   6.400   1.0643   0.00911   0.00407  -0.0832   0.0075   0.7636
   6.550   1.0807   0.00922   0.00419  -0.0831   0.0075   0.7669
   6.700   1.0970   0.00933   0.00431  -0.0830   0.0074   0.7713
   6.850   1.1133   0.00944   0.00443  -0.0828   0.0073   0.7761
   7.000   1.1296   0.00956   0.00456  -0.0826   0.0072   0.7804
   7.150   1.1458   0.00968   0.00469  -0.0825   0.0070   0.7849
   7.300   1.1619   0.00981   0.00484  -0.0823   0.0068   0.7903
   7.450   1.1778   0.00996   0.00500  -0.0820   0.0067   0.7949
   7.600   1.1938   0.01010   0.00515  -0.0818   0.0064   0.7996
   7.750   1.2097   0.01024   0.00531  -0.0815   0.0062   0.8049
   7.900   1.2254   0.01040   0.00548  -0.0813   0.0059   0.8094
   8.050   1.2409   0.01058   0.00567  -0.0809   0.0057   0.8139
   8.200   1.2564   0.01076   0.00587  -0.0806   0.0054   0.8194
   8.350   1.2715   0.01097   0.00610  -0.0802   0.0052   0.8242
   8.500   1.2865   0.01119   0.00636  -0.0798   0.0050   0.8293
   8.650   1.3020   0.01135   0.00655  -0.0794   0.0050   0.8350
   8.800   1.3175   0.01152   0.00674  -0.0791   0.0050   0.8397
   8.950   1.3328   0.01170   0.00694  -0.0787   0.0050   0.8454
   9.100   1.3480   0.01188   0.00714  -0.0783   0.0049   0.8510
   9.250   1.3633   0.01205   0.00734  -0.0779   0.0049   0.8564
   9.400   1.3784   0.01223   0.00755  -0.0775   0.0048   0.8629
   9.700   1.4083   0.01261   0.00797  -0.0766   0.0044   0.8765
   9.850   1.4230   0.01281   0.00820  -0.0761   0.0041   0.8837
  10.000   1.4372   0.01303   0.00844  -0.0755   0.0038   0.8925
  10.150   1.4511   0.01328   0.00872  -0.0749   0.0034   0.9009
  10.300   1.4648   0.01354   0.00901  -0.0742   0.0031   0.9096
  10.450   1.4784   0.01379   0.00930  -0.0735   0.0030   0.9172
  10.600   1.4917   0.01406   0.00960  -0.0727   0.0028   0.9249
  10.750   1.5045   0.01434   0.00993  -0.0719   0.0027   0.9336
  10.900   1.5169   0.01463   0.01025  -0.0709   0.0026   0.9432
  11.050   1.5268   0.01490   0.01059  -0.0695   0.0024   0.9632
  11.200   1.5386   0.01521   0.01096  -0.0685   0.0022   1.0000
  11.350   1.5506   0.01558   0.01137  -0.0676   0.0020   1.0000
  11.500   1.5623   0.01597   0.01179  -0.0666   0.0018   1.0000
  11.650   1.5739   0.01634   0.01220  -0.0656   0.0017   1.0000
  11.800   1.5854   0.01671   0.01260  -0.0645   0.0017   1.0000
  11.950   1.5956   0.01707   0.01300  -0.0633   0.0017   1.0000
  12.100   1.6041   0.01745   0.01341  -0.0617   0.0016   1.0000
  12.250   1.6121   0.01783   0.01384  -0.0600   0.0016   1.0000
  12.400   1.6195   0.01825   0.01430  -0.0583   0.0015   1.0000
  12.550   1.6269   0.01870   0.01479  -0.0567   0.0015   1.0000
  12.700   1.6338   0.01919   0.01532  -0.0550   0.0014   1.0000
  12.850   1.6405   0.01970   0.01588  -0.0533   0.0014   1.0000
  13.000   1.6472   0.02024   0.01647  -0.0517   0.0014   1.0000
  13.150   1.6533   0.02083   0.01711  -0.0501   0.0013   1.0000
  13.300   1.6595   0.02142   0.01775  -0.0485   0.0013   1.0000
  13.450   1.6644   0.02214   0.01852  -0.0469   0.0012   1.0000
  13.600   1.6697   0.02283   0.01927  -0.0453   0.0012   1.0000
  13.750   1.6740   0.02362   0.02011  -0.0437   0.0011   1.0000
  13.900   1.6787   0.02439   0.02095  -0.0422   0.0011   1.0000
  14.050   1.6813   0.02534   0.02197  -0.0406   0.0010   1.0000
  14.200   1.6845   0.02627   0.02296  -0.0390   0.0010   1.0000
  14.350   1.6872   0.02724   0.02400  -0.0376   0.0010   1.0000
  14.500   1.6875   0.02845   0.02529  -0.0360   0.0009   1.0000
  14.650   1.6907   0.02943   0.02634  -0.0347   0.0009   1.0000
  14.800   1.6903   0.03075   0.02774  -0.0333   0.0009   1.0000
  14.950   1.6885   0.03222   0.02930  -0.0318   0.0008   1.0000
  15.100   1.6883   0.03358   0.03073  -0.0306   0.0008   1.0000
  15.250   1.6859   0.03517   0.03241  -0.0294   0.0008   1.0000
  15.400   1.6823   0.03693   0.03425  -0.0283   0.0008   1.0000
  15.550   1.6791   0.03869   0.03610  -0.0273   0.0008   1.0000
  15.700   1.6744   0.04066   0.03816  -0.0265   0.0008   1.0000
  15.850   1.6677   0.04286   0.04045  -0.0257   0.0008   1.0000
  16.000   1.6640   0.04483   0.04249  -0.0252   0.0008   1.0000
  16.150   1.6588   0.04703   0.04477  -0.0248   0.0008   1.0000
  16.300   1.6493   0.04978   0.04761  -0.0246   0.0008   1.0000
  16.450   1.6426   0.05229   0.05020  -0.0246   0.0008   1.0000
  16.600   1.6345   0.05510   0.05309  -0.0248   0.0008   1.0000
  16.750   1.6251   0.05818   0.05625  -0.0253   0.0007   1.0000
  16.900   1.6128   0.06177   0.05993  -0.0261   0.0007   1.0000
  17.050   1.6003   0.06552   0.06377  -0.0272   0.0007   1.0000
  17.200   1.5895   0.06923   0.06756  -0.0285   0.0007   1.0000
  17.350   1.5795   0.07298   0.07138  -0.0299   0.0007   1.0000
  17.500   1.5667   0.07732   0.07580  -0.0319   0.0007   1.0000
  17.650   1.5498   0.08253   0.08109  -0.0345   0.0007   1.0000
  17.800   1.5390   0.08695   0.08557  -0.0369   0.0007   1.0000
  17.950   1.5232   0.09248   0.09118  -0.0401   0.0007   1.0000
  18.100   1.5069   0.09839   0.09716  -0.0438   0.0007   1.0000
  18.250   1.4911   0.10449   0.10333  -0.0477   0.0007   1.0000
  18.400   1.4730   0.11129   0.11019  -0.0522   0.0008   1.0000
  18.550   1.4513   0.11922   0.11819  -0.0576   0.0008   1.0000
  18.700   1.4301   0.12732   0.12636  -0.0632   0.0008   1.0000
  18.850   1.4014   0.13751   0.13661  -0.0701   0.0008   1.0000
  19.000   1.3716   0.14805   0.14721  -0.0770   0.0008   1.0000
  19.600   1.0984   0.24635   0.24578  -0.1384   0.0013   1.0000
  19.750   1.1011   0.24935   0.24878  -0.1403   0.0012   1.0000
  19.900   1.1039   0.25237   0.25180  -0.1422   0.0012   1.0000
  20.050   1.1067   0.25531   0.25474  -0.1440   0.0011   1.0000
  20.350   1.1085   0.26398   0.26341  -0.1487   0.0009   1.0000
  20.500   1.1118   0.26682   0.26626  -0.1505   0.0009   1.0000
  20.650   1.1152   0.26979   0.26922  -0.1523   0.0008   1.0000
  20.800   1.1183   0.27296   0.27239  -0.1542   0.0008   1.0000
  20.950   1.1218   0.27583   0.27527  -0.1559   0.0007   1.0000
  21.100   1.1219   0.28193   0.28137  -0.1586   0.0007   1.0000
  21.250   1.1261   0.28438   0.28381  -0.1602   0.0006   1.0000
  21.400   1.1303   0.28673   0.28616  -0.1618   0.0006   1.0000
  21.550   1.1344   0.28940   0.28884  -0.1634   0.0005   1.0000
  21.700   1.1387   0.29185   0.29129  -0.1650   0.0005   1.0000
  21.850   1.1426   0.29469   0.29413  -0.1667   0.0004   1.0000
  22.000   1.1449   0.30056   0.29999  -0.1690   0.0003   1.0000
  22.150   1.1491   0.30367   0.30310  -0.1707   0.0003   1.0000
  22.300   1.1535   0.30626   0.30569  -0.1723   0.0003   1.0000
  22.450   1.1580   0.30851   0.30793  -0.1738   0.0003   1.0000
  22.600   1.1625   0.31079   0.31022  -0.1753   0.0003   1.0000
  22.750   1.1671   0.31308   0.31251  -0.1769   0.0003   1.0000
  22.900   1.1716   0.31532   0.31475  -0.1784   0.0003   1.0000
  23.050   1.1761   0.31724   0.31667  -0.1799   0.0003   1.0000
