  
       XFOIL         Version 6.99
  
 Calculated polar for: NACA 65-410                                     
  
 1 1 Reynolds number fixed          Mach number fixed         
  
 xtrf =   1.000 (top)        1.000 (bottom)  
 Mach =   0.200     Re =     7.000 e 6     Ncrit =   5.000
  
   alpha    CL        CD       CDp       CM     Top_Xtr  Bot_Xtr
  ------ -------- --------- --------- -------- -------- --------
  -5.000  -0.2206   0.00603   0.00152  -0.0807   0.6919   0.0095
  -4.850  -0.2031   0.00597   0.00146  -0.0808   0.6890   0.0101
  -4.700  -0.1855   0.00591   0.00140  -0.0809   0.6857   0.0105
  -4.550  -0.1681   0.00587   0.00134  -0.0810   0.6816   0.0107
  -4.400  -0.1505   0.00581   0.00128  -0.0811   0.6788   0.0109
  -4.250  -0.1329   0.00576   0.00123  -0.0812   0.6763   0.0110
  -4.100  -0.1153   0.00572   0.00118  -0.0814   0.6732   0.0111
  -3.950  -0.0977   0.00568   0.00113  -0.0815   0.6699   0.0112
  -3.800  -0.0802   0.00564   0.00108  -0.0816   0.6660   0.0113
  -3.650  -0.0626   0.00560   0.00103  -0.0817   0.6637   0.0113
  -3.500  -0.0450   0.00554   0.00097  -0.0819   0.6609   0.0121
  -3.350  -0.0274   0.00550   0.00092  -0.0820   0.6576   0.0131
  -3.200  -0.0099   0.00546   0.00088  -0.0821   0.6539   0.0140
  -3.050   0.0077   0.00542   0.00084  -0.0823   0.6507   0.0146
  -2.900   0.0253   0.00538   0.00081  -0.0824   0.6483   0.0152
  -2.750   0.0429   0.00535   0.00077  -0.0826   0.6454   0.0156
  -2.600   0.0605   0.00532   0.00074  -0.0827   0.6422   0.0159
  -2.450   0.0780   0.00530   0.00071  -0.0829   0.6385   0.0161
  -2.300   0.0956   0.00527   0.00068  -0.0830   0.6359   0.0179
  -2.150   0.1132   0.00523   0.00065  -0.0832   0.6336   0.0197
  -2.000   0.1308   0.00519   0.00062  -0.0833   0.6309   0.0213
  -1.850   0.1484   0.00517   0.00060  -0.0835   0.6275   0.0223
  -1.700   0.1659   0.00516   0.00058  -0.0836   0.6230   0.0229
  -1.550   0.1835   0.00514   0.00056  -0.0838   0.6195   0.0237
  -1.400   0.2009   0.00513   0.00054  -0.0839   0.6137   0.0264
  -1.250   0.2183   0.00512   0.00053  -0.0840   0.6071   0.0293
  -1.100   0.2357   0.00511   0.00052  -0.0842   0.6003   0.0320
  -0.950   0.2530   0.00512   0.00051  -0.0843   0.5926   0.0352
  -0.800   0.2705   0.00509   0.00049  -0.0844   0.5866   0.0428
  -0.650   0.2878   0.00504   0.00049  -0.0846   0.5799   0.0682
  -0.500   0.3054   0.00497   0.00047  -0.0848   0.5762   0.0957
  -0.200   0.3402   0.00479   0.00046  -0.0852   0.5607   0.1860
  -0.050   0.3565   0.00482   0.00048  -0.0852   0.5322   0.2233
   0.100   0.3722   0.00489   0.00051  -0.0851   0.4911   0.2707
   0.250   0.3880   0.00492   0.00056  -0.0851   0.4516   0.3334
   0.400   0.4039   0.00490   0.00061  -0.0852   0.4124   0.4138
   0.550   0.4199   0.00486   0.00065  -0.0854   0.3733   0.5056
   0.700   0.4357   0.00495   0.00073  -0.0853   0.3302   0.5558
   0.850   0.4510   0.00517   0.00082  -0.0852   0.2789   0.5759
   1.000   0.4662   0.00543   0.00092  -0.0850   0.2245   0.5848
   1.150   0.4819   0.00564   0.00100  -0.0848   0.1805   0.5921
   1.300   0.4983   0.00576   0.00107  -0.0848   0.1561   0.6027
   1.450   0.5144   0.00594   0.00114  -0.0847   0.1215   0.6113
   1.750   0.5466   0.00627   0.00131  -0.0845   0.0616   0.6252
   1.900   0.5629   0.00643   0.00139  -0.0844   0.0370   0.6310
   2.050   0.5799   0.00649   0.00144  -0.0845   0.0323   0.6345
   2.200   0.5970   0.00656   0.00149  -0.0845   0.0296   0.6375
   2.350   0.6141   0.00662   0.00154  -0.0846   0.0268   0.6415
   2.500   0.6312   0.00667   0.00159  -0.0846   0.0242   0.6452
   2.650   0.6483   0.00672   0.00164  -0.0847   0.0238   0.6482
   2.950   0.6825   0.00683   0.00175  -0.0848   0.0227   0.6547
   3.100   0.6995   0.00690   0.00181  -0.0848   0.0210   0.6585
   3.250   0.7163   0.00699   0.00188  -0.0848   0.0182   0.6618
   3.400   0.7333   0.00706   0.00195  -0.0848   0.0162   0.6645
   3.550   0.7502   0.00713   0.00202  -0.0849   0.0151   0.6681
   3.700   0.7670   0.00722   0.00210  -0.0848   0.0131   0.6720
   3.850   0.7838   0.00731   0.00217  -0.0848   0.0112   0.6754
   4.000   0.8007   0.00738   0.00225  -0.0848   0.0108   0.6782
   4.150   0.8175   0.00747   0.00233  -0.0848   0.0102   0.6813
   4.300   0.8343   0.00755   0.00241  -0.0848   0.0097   0.6855
   4.450   0.8510   0.00764   0.00250  -0.0848   0.0090   0.6892
   4.600   0.8678   0.00773   0.00258  -0.0847   0.0084   0.6924
   4.750   0.8845   0.00782   0.00268  -0.0847   0.0080   0.6952
   4.900   0.9012   0.00791   0.00278  -0.0846   0.0077   0.6992
   5.050   0.9179   0.00800   0.00288  -0.0846   0.0076   0.7029
   5.200   0.9346   0.00809   0.00298  -0.0845   0.0076   0.7063
   5.500   0.9679   0.00828   0.00318  -0.0844   0.0076   0.7135
   5.650   0.9845   0.00838   0.00329  -0.0843   0.0076   0.7177
   5.800   1.0010   0.00848   0.00339  -0.0842   0.0075   0.7212
   5.950   1.0176   0.00858   0.00350  -0.0841   0.0075   0.7240
   6.100   1.0341   0.00868   0.00362  -0.0840   0.0075   0.7281
   6.250   1.0505   0.00879   0.00374  -0.0838   0.0074   0.7319
   6.400   1.0669   0.00890   0.00386  -0.0837   0.0074   0.7352
   6.550   1.0833   0.00901   0.00398  -0.0836   0.0073   0.7378
   6.700   1.0997   0.00912   0.00410  -0.0834   0.0071   0.7416
   6.850   1.1161   0.00924   0.00422  -0.0833   0.0070   0.7456
   7.000   1.1323   0.00936   0.00435  -0.0831   0.0067   0.7494
   7.150   1.1485   0.00949   0.00448  -0.0829   0.0065   0.7525
   7.300   1.1646   0.00962   0.00463  -0.0827   0.0063   0.7572
   7.450   1.1806   0.00976   0.00478  -0.0825   0.0061   0.7619
   7.600   1.1964   0.00991   0.00494  -0.0823   0.0057   0.7657
   7.750   1.2122   0.01007   0.00511  -0.0820   0.0054   0.7697
   7.900   1.2279   0.01024   0.00530  -0.0817   0.0051   0.7745
   8.050   1.2436   0.01040   0.00549  -0.0814   0.0050   0.7787
   8.350   1.2751   0.01071   0.00583  -0.0808   0.0050   0.7872
   8.500   1.2907   0.01087   0.00601  -0.0805   0.0050   0.7922
   8.800   1.3218   0.01120   0.00639  -0.0798   0.0049   0.8024
   8.950   1.3372   0.01138   0.00658  -0.0795   0.0048   0.8079
   9.100   1.3526   0.01156   0.00678  -0.0791   0.0047   0.8125
   9.250   1.3679   0.01174   0.00698  -0.0787   0.0045   0.8179
   9.400   1.3830   0.01192   0.00719  -0.0783   0.0043   0.8231
   9.550   1.3978   0.01214   0.00741  -0.0778   0.0038   0.8281
   9.700   1.4124   0.01237   0.00766  -0.0773   0.0035   0.8340
   9.850   1.4268   0.01261   0.00791  -0.0768   0.0031   0.8389
  10.000   1.4413   0.01284   0.00818  -0.0762   0.0029   0.8447
  10.150   1.4555   0.01309   0.00845  -0.0756   0.0028   0.8505
  10.300   1.4695   0.01335   0.00874  -0.0750   0.0026   0.8558
  10.450   1.4832   0.01363   0.00905  -0.0743   0.0024   0.8622
  10.600   1.4966   0.01393   0.00938  -0.0736   0.0022   0.8680
  10.750   1.5098   0.01424   0.00973  -0.0729   0.0020   0.8752
  10.900   1.5230   0.01453   0.01007  -0.0721   0.0019   0.8836
  11.050   1.5359   0.01484   0.01042  -0.0713   0.0017   0.8943
  11.200   1.5487   0.01512   0.01076  -0.0704   0.0017   0.9055
  11.350   1.5611   0.01543   0.01112  -0.0695   0.0016   0.9160
  11.500   1.5731   0.01575   0.01150  -0.0685   0.0016   0.9259
  11.650   1.5846   0.01607   0.01187  -0.0675   0.0016   0.9369
  11.800   1.5951   0.01640   0.01226  -0.0662   0.0015   0.9499
  12.400   1.6285   0.01789   0.01397  -0.0597   0.0013   1.0000
  12.550   1.6358   0.01832   0.01443  -0.0580   0.0012   1.0000
  12.700   1.6417   0.01885   0.01500  -0.0562   0.0011   1.0000
  12.850   1.6483   0.01935   0.01555  -0.0545   0.0011   1.0000
  13.000   1.6549   0.01988   0.01612  -0.0528   0.0010   1.0000
  13.150   1.6605   0.02048   0.01678  -0.0511   0.0010   1.0000
  13.300   1.6673   0.02103   0.01738  -0.0495   0.0010   1.0000
  13.450   1.6718   0.02175   0.01815  -0.0478   0.0009   1.0000
  13.600   1.6773   0.02242   0.01887  -0.0462   0.0009   1.0000
  13.750   1.6819   0.02317   0.01969  -0.0446   0.0008   1.0000
  13.900   1.6867   0.02391   0.02049  -0.0430   0.0008   1.0000
  14.050   1.6897   0.02481   0.02146  -0.0414   0.0008   1.0000
  14.200   1.6939   0.02564   0.02235  -0.0399   0.0008   1.0000
  14.350   1.6976   0.02653   0.02330  -0.0385   0.0008   1.0000
  14.500   1.7005   0.02748   0.02431  -0.0370   0.0007   1.0000
  14.650   1.7030   0.02849   0.02539  -0.0356   0.0007   1.0000
  14.800   1.7048   0.02960   0.02657  -0.0343   0.0007   1.0000
  14.950   1.7063   0.03074   0.02777  -0.0330   0.0007   1.0000
  15.100   1.7063   0.03205   0.02915  -0.0317   0.0007   1.0000
  15.250   1.7064   0.03337   0.03055  -0.0305   0.0007   1.0000
  15.400   1.7055   0.03482   0.03207  -0.0293   0.0007   1.0000
  15.550   1.7042   0.03633   0.03365  -0.0283   0.0007   1.0000
  15.700   1.7020   0.03797   0.03537  -0.0273   0.0007   1.0000
  15.850   1.6979   0.03986   0.03735  -0.0264   0.0007   1.0000
  16.000   1.6954   0.04162   0.03917  -0.0257   0.0007   1.0000
  16.150   1.6909   0.04363   0.04126  -0.0251   0.0007   1.0000
  16.300   1.6844   0.04594   0.04365  -0.0247   0.0007   1.0000
  16.450   1.6786   0.04824   0.04603  -0.0244   0.0007   1.0000
  16.600   1.6719   0.05072   0.04859  -0.0243   0.0007   1.0000
  16.750   1.6638   0.05346   0.05141  -0.0244   0.0007   1.0000
  16.900   1.6539   0.05654   0.05457  -0.0247   0.0007   1.0000
  17.050   1.6439   0.05977   0.05789  -0.0253   0.0007   1.0000
  17.200   1.6341   0.06309   0.06128  -0.0262   0.0007   1.0000
  17.350   1.6246   0.06650   0.06477  -0.0272   0.0007   1.0000
  17.500   1.6132   0.07033   0.06867  -0.0286   0.0007   1.0000
  17.650   1.5992   0.07475   0.07317  -0.0304   0.0007   1.0000
  17.800   1.5884   0.07884   0.07733  -0.0323   0.0007   1.0000
  17.950   1.5744   0.08362   0.08218  -0.0348   0.0007   1.0000
  18.100   1.5595   0.08879   0.08743  -0.0376   0.0007   1.0000
  18.250   1.5454   0.09407   0.09277  -0.0407   0.0007   1.0000
  18.400   1.5297   0.09987   0.09864  -0.0443   0.0007   1.0000
  18.550   1.5118   0.10639   0.10523  -0.0485   0.0007   1.0000
  18.700   1.4950   0.11291   0.11181  -0.0529   0.0007   1.0000
  18.850   1.4744   0.12051   0.11948  -0.0581   0.0007   1.0000
  19.000   1.4525   0.12867   0.12771  -0.0636   0.0007   1.0000
  19.150   1.4206   0.13941   0.13852  -0.0710   0.0007   1.0000
  19.750   1.1040   0.24815   0.24759  -0.1399   0.0010   1.0000
  19.900   1.1074   0.25081   0.25024  -0.1416   0.0009   1.0000
  20.050   1.1107   0.25345   0.25289  -0.1433   0.0009   1.0000
  20.200   1.1142   0.25604   0.25548  -0.1450   0.0009   1.0000
  20.350   1.1176   0.25868   0.25812  -0.1468   0.0008   1.0000
  20.500   1.1206   0.26157   0.26101  -0.1486   0.0008   1.0000
  20.650   1.1177   0.26848   0.26794  -0.1520   0.0007   1.0000
  20.800   1.1215   0.27100   0.27046  -0.1536   0.0007   1.0000
  20.950   1.1255   0.27341   0.27287  -0.1552   0.0007   1.0000
  21.100   1.1292   0.27607   0.27554  -0.1569   0.0007   1.0000
  21.250   1.1331   0.27860   0.27807  -0.1586   0.0007   1.0000
  21.400   1.1364   0.28154   0.28101  -0.1603   0.0007   1.0000
  21.550   1.1367   0.28743   0.28690  -0.1630   0.0006   1.0000
  21.700   1.1412   0.28954   0.28901  -0.1645   0.0005   1.0000
  21.850   1.1453   0.29206   0.29153  -0.1661   0.0005   1.0000
  22.000   1.1497   0.29414   0.29361  -0.1676   0.0005   1.0000
  22.150   1.1541   0.29630   0.29577  -0.1692   0.0004   1.0000
  22.300   1.1582   0.29870   0.29818  -0.1707   0.0004   1.0000
  22.450   1.1626   0.30086   0.30034  -0.1723   0.0004   1.0000
  22.600   1.1669   0.30296   0.30244  -0.1738   0.0004   1.0000
  22.750   1.1714   0.30494   0.30441  -0.1753   0.0003   1.0000
  22.900   1.1757   0.30717   0.30664  -0.1768   0.0003   1.0000
  23.050   1.1799   0.30939   0.30886  -0.1784   0.0003   1.0000
