  
       XFOIL         Version 6.99
  
 Calculated polar for: NACA 65-410                                     
  
 1 1 Reynolds number fixed          Mach number fixed         
  
 xtrf =   1.000 (top)        1.000 (bottom)  
 Mach =   0.200     Re =     4.500 e 6     Ncrit =   5.000
  
   alpha    CL        CD       CDp       CM     Top_Xtr  Bot_Xtr
  ------ -------- --------- --------- -------- -------- --------
  -5.000  -0.2206   0.00652   0.00178  -0.0804   0.7173   0.0103
  -4.850  -0.2032   0.00646   0.00171  -0.0805   0.7136   0.0107
  -4.700  -0.1858   0.00641   0.00164  -0.0806   0.7100   0.0109
  -4.550  -0.1683   0.00635   0.00156  -0.0807   0.7072   0.0110
  -4.400  -0.1507   0.00629   0.00150  -0.0808   0.7045   0.0112
  -4.250  -0.1332   0.00625   0.00145  -0.0809   0.7012   0.0113
  -4.100  -0.1158   0.00619   0.00137  -0.0810   0.6975   0.0115
  -3.950  -0.0984   0.00612   0.00129  -0.0811   0.6939   0.0119
  -3.800  -0.0808   0.00606   0.00121  -0.0813   0.6913   0.0125
  -3.650  -0.0633   0.00600   0.00115  -0.0814   0.6881   0.0134
  -3.500  -0.0458   0.00595   0.00110  -0.0815   0.6846   0.0141
  -3.350  -0.0284   0.00591   0.00105  -0.0816   0.6810   0.0146
  -3.200  -0.0108   0.00586   0.00100  -0.0818   0.6784   0.0152
  -3.050   0.0068   0.00582   0.00096  -0.0819   0.6756   0.0155
  -2.900   0.0243   0.00578   0.00092  -0.0820   0.6723   0.0158
  -2.750   0.0418   0.00575   0.00087  -0.0822   0.6687   0.0160
  -2.600   0.0592   0.00572   0.00083  -0.0823   0.6652   0.0171
  -2.450   0.0768   0.00567   0.00079  -0.0825   0.6628   0.0190
  -2.300   0.0944   0.00563   0.00076  -0.0826   0.6598   0.0206
  -2.150   0.1119   0.00560   0.00073  -0.0827   0.6564   0.0219
  -2.000   0.1294   0.00558   0.00070  -0.0829   0.6528   0.0226
  -1.850   0.1469   0.00555   0.00067  -0.0830   0.6501   0.0230
  -1.700   0.1645   0.00552   0.00064  -0.0832   0.6475   0.0251
  -1.550   0.1821   0.00549   0.00062  -0.0833   0.6445   0.0283
  -1.400   0.1996   0.00546   0.00060  -0.0835   0.6413   0.0309
  -1.250   0.2170   0.00544   0.00058  -0.0836   0.6379   0.0331
  -1.100   0.2346   0.00541   0.00056  -0.0838   0.6353   0.0401
  -0.950   0.2522   0.00536   0.00054  -0.0840   0.6318   0.0518
  -0.800   0.2695   0.00526   0.00052  -0.0841   0.6262   0.0880
  -0.650   0.2870   0.00517   0.00050  -0.0843   0.6205   0.1268
  -0.500   0.3044   0.00504   0.00049  -0.0846   0.6138   0.1765
  -0.350   0.3217   0.00488   0.00047  -0.0848   0.6068   0.2465
  -0.200   0.3392   0.00472   0.00046  -0.0851   0.6007   0.3071
  -0.050   0.3566   0.00448   0.00043  -0.0855   0.5948   0.4009
   0.100   0.3738   0.00426   0.00042  -0.0858   0.5831   0.4962
   0.250   0.3906   0.00421   0.00044  -0.0859   0.5645   0.5495
   0.400   0.4076   0.00420   0.00047  -0.0860   0.5503   0.5812
   0.550   0.4243   0.00424   0.00050  -0.0861   0.5303   0.6026
   0.700   0.4404   0.00438   0.00055  -0.0860   0.4991   0.6140
   0.850   0.4555   0.00464   0.00064  -0.0857   0.4496   0.6221
   1.000   0.4704   0.00490   0.00074  -0.0855   0.3977   0.6306
   1.300   0.4989   0.00563   0.00101  -0.0847   0.2629   0.6415
   1.450   0.5141   0.00589   0.00111  -0.0845   0.2149   0.6456
   1.600   0.5298   0.00611   0.00120  -0.0844   0.1770   0.6487
   1.750   0.5447   0.00642   0.00133  -0.0841   0.1240   0.6516
   2.050   0.5765   0.00680   0.00152  -0.0838   0.0642   0.6591
   2.200   0.5926   0.00697   0.00161  -0.0837   0.0416   0.6624
   2.500   0.6263   0.00714   0.00173  -0.0837   0.0302   0.6690
   2.650   0.6432   0.00721   0.00180  -0.0838   0.0274   0.6728
   2.800   0.6602   0.00728   0.00186  -0.0838   0.0246   0.6763
   2.950   0.6773   0.00734   0.00192  -0.0838   0.0239   0.6793
   3.100   0.6943   0.00740   0.00199  -0.0839   0.0234   0.6828
   3.250   0.7112   0.00746   0.00206  -0.0839   0.0226   0.6865
   3.400   0.7281   0.00754   0.00213  -0.0839   0.0210   0.6902
   3.550   0.7447   0.00764   0.00221  -0.0838   0.0185   0.6934
   3.700   0.7615   0.00773   0.00230  -0.0838   0.0162   0.6967
   3.850   0.7783   0.00781   0.00238  -0.0838   0.0151   0.7008
   4.000   0.7949   0.00790   0.00246  -0.0838   0.0137   0.7045
   4.150   0.8115   0.00801   0.00255  -0.0837   0.0118   0.7077
   4.300   0.8282   0.00810   0.00264  -0.0837   0.0111   0.7108
   4.450   0.8449   0.00818   0.00274  -0.0836   0.0106   0.7147
   4.600   0.8615   0.00828   0.00284  -0.0836   0.0101   0.7186
   4.750   0.8781   0.00838   0.00294  -0.0835   0.0097   0.7221
   4.900   0.8946   0.00849   0.00305  -0.0834   0.0093   0.7257
   5.050   0.9111   0.00859   0.00315  -0.0833   0.0089   0.7298
   5.200   0.9276   0.00870   0.00327  -0.0832   0.0085   0.7337
   5.350   0.9440   0.00882   0.00340  -0.0831   0.0083   0.7370
   5.500   0.9604   0.00893   0.00353  -0.0830   0.0081   0.7403
   5.650   0.9767   0.00906   0.00367  -0.0829   0.0079   0.7443
   5.800   0.9928   0.00919   0.00383  -0.0827   0.0077   0.7481
   5.950   1.0090   0.00932   0.00398  -0.0825   0.0076   0.7514
   6.100   1.0253   0.00945   0.00411  -0.0824   0.0076   0.7550
   6.250   1.0415   0.00957   0.00425  -0.0822   0.0076   0.7595
   6.400   1.0577   0.00970   0.00440  -0.0820   0.0076   0.7638
   6.700   1.0900   0.00994   0.00468  -0.0817   0.0074   0.7723
   6.850   1.1061   0.01007   0.00482  -0.0815   0.0073   0.7771
   7.000   1.1221   0.01021   0.00497  -0.0813   0.0073   0.7812
   7.150   1.1382   0.01033   0.00511  -0.0811   0.0070   0.7856
   7.300   1.1541   0.01048   0.00527  -0.0809   0.0069   0.7904
   7.450   1.1698   0.01063   0.00545  -0.0806   0.0068   0.7947
   7.600   1.1855   0.01079   0.00562  -0.0803   0.0065   0.7993
   7.750   1.2011   0.01095   0.00580  -0.0801   0.0064   0.8048
   7.900   1.2167   0.01112   0.00599  -0.0797   0.0062   0.8098
   8.050   1.2322   0.01128   0.00617  -0.0794   0.0059   0.8150
   8.200   1.2475   0.01147   0.00637  -0.0791   0.0056   0.8206
   8.350   1.2625   0.01167   0.00659  -0.0787   0.0054   0.8253
   8.500   1.2774   0.01189   0.00685  -0.0782   0.0052   0.8305
   8.650   1.2920   0.01213   0.00712  -0.0777   0.0050   0.8361
   8.800   1.3071   0.01232   0.00734  -0.0773   0.0050   0.8409
   8.950   1.3220   0.01252   0.00757  -0.0769   0.0050   0.8470
   9.100   1.3369   0.01272   0.00780  -0.0764   0.0049   0.8527
   9.250   1.3516   0.01292   0.00804  -0.0760   0.0049   0.8587
   9.400   1.3663   0.01314   0.00828  -0.0755   0.0048   0.8650
   9.550   1.3808   0.01334   0.00853  -0.0750   0.0046   0.8711
   9.700   1.3951   0.01357   0.00879  -0.0744   0.0045   0.8783
   9.850   1.4093   0.01379   0.00904  -0.0738   0.0043   0.8854
  10.000   1.4233   0.01401   0.00929  -0.0732   0.0040   0.8941
  10.150   1.4368   0.01425   0.00955  -0.0726   0.0035   0.9038
  10.300   1.4499   0.01453   0.00986  -0.0718   0.0032   0.9134
  10.450   1.4627   0.01481   0.01019  -0.0709   0.0030   0.9232
  10.600   1.4750   0.01509   0.01052  -0.0700   0.0029   0.9327
  10.750   1.4867   0.01538   0.01086  -0.0690   0.0028   0.9438
  10.900   1.4961   0.01561   0.01117  -0.0674   0.0027   0.9715
  11.200   1.5202   0.01633   0.01197  -0.0656   0.0023   1.0000
  11.350   1.5314   0.01673   0.01240  -0.0646   0.0022   1.0000
  11.500   1.5415   0.01715   0.01286  -0.0634   0.0020   1.0000
  11.650   1.5505   0.01755   0.01330  -0.0619   0.0019   1.0000
  11.800   1.5586   0.01796   0.01376  -0.0603   0.0017   1.0000
  11.950   1.5667   0.01838   0.01421  -0.0587   0.0017   1.0000
  12.100   1.5746   0.01881   0.01469  -0.0571   0.0017   1.0000
  12.250   1.5822   0.01926   0.01519  -0.0556   0.0017   1.0000
  12.400   1.5896   0.01976   0.01573  -0.0540   0.0016   1.0000
  12.550   1.5967   0.02028   0.01630  -0.0525   0.0016   1.0000
  12.700   1.6035   0.02083   0.01691  -0.0509   0.0015   1.0000
  12.850   1.6101   0.02142   0.01755  -0.0494   0.0015   1.0000
  13.000   1.6163   0.02205   0.01824  -0.0479   0.0014   1.0000
  13.150   1.6219   0.02273   0.01898  -0.0463   0.0014   1.0000
  13.300   1.6276   0.02342   0.01973  -0.0449   0.0014   1.0000
  13.450   1.6324   0.02420   0.02057  -0.0434   0.0013   1.0000
  13.600   1.6370   0.02501   0.02144  -0.0419   0.0013   1.0000
  13.750   1.6407   0.02590   0.02240  -0.0404   0.0012   1.0000
  13.900   1.6446   0.02680   0.02337  -0.0390   0.0012   1.0000
  14.050   1.6466   0.02786   0.02450  -0.0375   0.0011   1.0000
  14.200   1.6488   0.02893   0.02564  -0.0361   0.0011   1.0000
  14.350   1.6506   0.03006   0.02685  -0.0347   0.0011   1.0000
  14.500   1.6502   0.03141   0.02828  -0.0333   0.0010   1.0000
  14.650   1.6519   0.03259   0.02953  -0.0322   0.0010   1.0000
  14.800   1.6506   0.03408   0.03111  -0.0309   0.0010   1.0000
  14.950   1.6478   0.03573   0.03285  -0.0297   0.0009   1.0000
  15.100   1.6462   0.03731   0.03451  -0.0287   0.0010   1.0000
  15.250   1.6428   0.03912   0.03641  -0.0277   0.0009   1.0000
  15.400   1.6380   0.04111   0.03850  -0.0269   0.0009   1.0000
  15.550   1.6335   0.04311   0.04059  -0.0262   0.0009   1.0000
  15.700   1.6273   0.04536   0.04293  -0.0257   0.0009   1.0000
  15.850   1.6197   0.04785   0.04552  -0.0253   0.0009   1.0000
  16.000   1.6119   0.05043   0.04818  -0.0251   0.0008   1.0000
  16.150   1.6026   0.05328   0.05113  -0.0252   0.0008   1.0000
  16.300   1.5930   0.05630   0.05424  -0.0255   0.0008   1.0000
  16.450   1.5821   0.05961   0.05764  -0.0260   0.0008   1.0000
  16.600   1.5726   0.06288   0.06099  -0.0268   0.0008   1.0000
  16.750   1.5596   0.06676   0.06496  -0.0280   0.0008   1.0000
  16.900   1.5456   0.07099   0.06928  -0.0296   0.0008   1.0000
  17.050   1.5325   0.07530   0.07368  -0.0314   0.0008   1.0000
  17.200   1.5193   0.07982   0.07828  -0.0335   0.0008   1.0000
  17.350   1.5066   0.08445   0.08298  -0.0360   0.0008   1.0000
  17.500   1.4930   0.08951   0.08811  -0.0388   0.0008   1.0000
  17.650   1.4767   0.09531   0.09399  -0.0423   0.0008   1.0000
  17.800   1.4617   0.10117   0.09992  -0.0460   0.0008   1.0000
  17.950   1.4460   0.10743   0.10626  -0.0501   0.0008   1.0000
  18.100   1.4282   0.11443   0.11332  -0.0548   0.0008   1.0000
  18.250   1.4106   0.12170   0.12066  -0.0598   0.0009   1.0000
  18.400   1.3897   0.13004   0.12905  -0.0654   0.0009   1.0000
  18.550   1.3594   0.14094   0.14003  -0.0726   0.0010   1.0000
  19.150   1.0808   0.24112   0.24046  -0.1342   0.0013   1.0000
  19.300   1.0786   0.24702   0.24637  -0.1372   0.0012   1.0000
  19.450   1.0815   0.25012   0.24946  -0.1391   0.0011   1.0000
  19.600   1.0851   0.25276   0.25210  -0.1407   0.0011   1.0000
  19.750   1.0888   0.25534   0.25468  -0.1424   0.0010   1.0000
  19.900   1.0927   0.25789   0.25723  -0.1440   0.0010   1.0000
  20.050   1.0966   0.26035   0.25968  -0.1457   0.0010   1.0000
  20.200   1.1005   0.26291   0.26224  -0.1473   0.0009   1.0000
  20.350   1.1041   0.26560   0.26494  -0.1490   0.0009   1.0000
  20.500   1.1074   0.26864   0.26798  -0.1508   0.0009   1.0000
  20.650   1.1065   0.27541   0.27475  -0.1538   0.0007   1.0000
  20.800   1.1108   0.27785   0.27719  -0.1554   0.0007   1.0000
  20.950   1.1148   0.28053   0.27987  -0.1570   0.0006   1.0000
  21.100   1.1189   0.28324   0.28258  -0.1587   0.0006   1.0000
  21.250   1.1228   0.28616   0.28550  -0.1603   0.0005   1.0000
  21.400   1.1259   0.29041   0.28975  -0.1624   0.0004   1.0000
  21.550   1.1302   0.29310   0.29243  -0.1640   0.0004   1.0000
  21.700   1.1343   0.29619   0.29552  -0.1657   0.0003   1.0000
  21.850   1.1387   0.29874   0.29807  -0.1672   0.0003   1.0000
  22.000   1.1431   0.30134   0.30067  -0.1688   0.0003   1.0000
  22.150   1.1476   0.30387   0.30320  -0.1704   0.0003   1.0000
  22.300   1.1520   0.30625   0.30558  -0.1719   0.0003   1.0000
  22.450   1.1566   0.30843   0.30776  -0.1734   0.0003   1.0000
  22.600   1.1611   0.31063   0.30996  -0.1749   0.0003   1.0000
  22.750   1.1657   0.31285   0.31218  -0.1765   0.0003   1.0000
  22.900   1.1703   0.31506   0.31439  -0.1780   0.0003   1.0000
  23.050   1.1748   0.31699   0.31632  -0.1795   0.0003   1.0000
