  
       XFOIL         Version 6.99
  
 Calculated polar for: NACA 65-210                                     
  
 1 1 Reynolds number fixed          Mach number fixed         
  
 xtrf =   1.000 (top)        1.000 (bottom)  
 Mach =   0.200     Re =     3.000 e 6     Ncrit =   7.000
  
   alpha    CL        CD       CDp       CM     Top_Xtr  Bot_Xtr
  ------ -------- --------- --------- -------- -------- --------
  -5.000  -0.3897   0.00746   0.00249  -0.0399   0.7803   0.0120
  -4.850  -0.3727   0.00736   0.00237  -0.0400   0.7768   0.0123
  -4.700  -0.3555   0.00728   0.00228  -0.0400   0.7728   0.0125
  -4.550  -0.3383   0.00722   0.00220  -0.0400   0.7685   0.0127
  -4.400  -0.3212   0.00714   0.00210  -0.0401   0.7644   0.0128
  -4.250  -0.3040   0.00706   0.00201  -0.0401   0.7609   0.0129
  -4.100  -0.2870   0.00690   0.00181  -0.0401   0.7569   0.0138
  -3.950  -0.2700   0.00681   0.00168  -0.0401   0.7530   0.0149
  -3.800  -0.2528   0.00673   0.00160  -0.0402   0.7495   0.0158
  -3.650  -0.2355   0.00665   0.00153  -0.0403   0.7462   0.0165
  -3.500  -0.2182   0.00658   0.00145  -0.0403   0.7424   0.0172
  -3.350  -0.2009   0.00653   0.00138  -0.0404   0.7384   0.0179
  -3.200  -0.1836   0.00648   0.00132  -0.0405   0.7348   0.0184
  -3.050  -0.1662   0.00643   0.00127  -0.0406   0.7314   0.0188
  -2.900  -0.1489   0.00636   0.00118  -0.0407   0.7275   0.0205
  -2.750  -0.1317   0.00630   0.00112  -0.0408   0.7236   0.0234
  -2.600  -0.1144   0.00624   0.00107  -0.0409   0.7203   0.0256
  -2.450  -0.0970   0.00619   0.00102  -0.0410   0.7169   0.0270
  -2.300  -0.0796   0.00615   0.00097  -0.0411   0.7131   0.0275
  -2.150  -0.0622   0.00611   0.00093  -0.0412   0.7092   0.0304
  -2.000  -0.0449   0.00606   0.00089  -0.0413   0.7059   0.0350
  -1.850  -0.0275   0.00600   0.00085  -0.0414   0.7026   0.0396
  -1.700  -0.0105   0.00585   0.00079  -0.0415   0.6988   0.0719
  -1.550   0.0064   0.00568   0.00073  -0.0416   0.6949   0.1157
  -1.400   0.0234   0.00550   0.00067  -0.0418   0.6917   0.1630
  -1.250   0.0402   0.00524   0.00061  -0.0419   0.6884   0.2293
  -1.100   0.0567   0.00492   0.00054  -0.0421   0.6848   0.3166
  -0.950   0.0730   0.00455   0.00046  -0.0423   0.6811   0.4205
  -0.800   0.0896   0.00426   0.00041  -0.0424   0.6779   0.5018
  -0.650   0.1067   0.00410   0.00039  -0.0426   0.6747   0.5509
  -0.500   0.1239   0.00400   0.00039  -0.0427   0.6704   0.5851
  -0.350   0.1411   0.00397   0.00039  -0.0428   0.6651   0.6068
  -0.200   0.1586   0.00394   0.00039  -0.0429   0.6603   0.6213
  -0.050   0.1760   0.00392   0.00039  -0.0430   0.6543   0.6324
   0.100   0.1933   0.00394   0.00040  -0.0431   0.6443   0.6408
   0.250   0.2105   0.00397   0.00041  -0.0432   0.6330   0.6498
   0.400   0.2278   0.00396   0.00042  -0.0433   0.6249   0.6628
   0.550   0.2451   0.00397   0.00043  -0.0434   0.6164   0.6718
   0.700   0.2624   0.00401   0.00045  -0.0435   0.6052   0.6766
   0.850   0.2796   0.00407   0.00046  -0.0436   0.5922   0.6804
   1.000   0.2967   0.00412   0.00048  -0.0436   0.5760   0.6844
   1.150   0.3134   0.00423   0.00052  -0.0436   0.5511   0.6882
   1.300   0.3293   0.00444   0.00057  -0.0435   0.5051   0.6917
   1.450   0.3440   0.00480   0.00067  -0.0433   0.4331   0.6950
   1.600   0.3582   0.00522   0.00081  -0.0430   0.3505   0.6990
   1.900   0.3874   0.00601   0.00108  -0.0425   0.1983   0.7064
   2.050   0.4028   0.00630   0.00120  -0.0423   0.1446   0.7100
   2.200   0.4184   0.00657   0.00132  -0.0421   0.0967   0.7141
   2.350   0.4346   0.00675   0.00141  -0.0421   0.0690   0.7181
   2.500   0.4508   0.00694   0.00150  -0.0420   0.0431   0.7215
   2.650   0.4676   0.00704   0.00158  -0.0420   0.0333   0.7252
   2.800   0.4846   0.00711   0.00164  -0.0420   0.0306   0.7291
   2.950   0.5016   0.00719   0.00171  -0.0421   0.0278   0.7329
   3.100   0.5186   0.00727   0.00179  -0.0421   0.0245   0.7363
   3.250   0.5356   0.00734   0.00187  -0.0421   0.0231   0.7403
   3.400   0.5526   0.00739   0.00194  -0.0422   0.0227   0.7445
   3.550   0.5697   0.00746   0.00201  -0.0422   0.0220   0.7483
   3.700   0.5866   0.00755   0.00209  -0.0422   0.0204   0.7517
   3.850   0.6033   0.00765   0.00218  -0.0422   0.0181   0.7558
   4.000   0.6201   0.00775   0.00229  -0.0421   0.0156   0.7600
   4.150   0.6370   0.00783   0.00238  -0.0421   0.0151   0.7640
   4.300   0.6538   0.00792   0.00247  -0.0421   0.0144   0.7679
   4.450   0.6705   0.00801   0.00257  -0.0421   0.0135   0.7725
   4.600   0.6871   0.00813   0.00268  -0.0420   0.0126   0.7769
   4.750   0.7036   0.00827   0.00283  -0.0419   0.0113   0.7807
   4.900   0.7198   0.00843   0.00305  -0.0417   0.0106   0.7852
   5.050   0.7365   0.00852   0.00315  -0.0417   0.0105   0.7897
   5.200   0.7531   0.00864   0.00329  -0.0416   0.0104   0.7937
   5.350   0.7696   0.00876   0.00343  -0.0415   0.0103   0.7981
   5.500   0.7860   0.00889   0.00359  -0.0414   0.0102   0.8027
   5.650   0.8023   0.00903   0.00375  -0.0413   0.0101   0.8072
   5.800   0.8186   0.00918   0.00392  -0.0411   0.0100   0.8117
   5.950   0.8347   0.00933   0.00412  -0.0409   0.0099   0.8168
   6.100   0.8509   0.00949   0.00430  -0.0407   0.0097   0.8216
   6.250   0.8669   0.00965   0.00449  -0.0405   0.0096   0.8262
   6.400   0.8831   0.00979   0.00465  -0.0404   0.0094   0.8313
   6.550   0.8991   0.00994   0.00483  -0.0402   0.0092   0.8361
   6.700   0.9150   0.01011   0.00503  -0.0400   0.0091   0.8405
   6.850   0.9308   0.01029   0.00524  -0.0397   0.0090   0.8457
   7.000   0.9468   0.01045   0.00541  -0.0395   0.0087   0.8507
   7.150   0.9626   0.01061   0.00561  -0.0392   0.0086   0.8557
   7.300   0.9784   0.01077   0.00579  -0.0390   0.0083   0.8615
   7.600   1.0087   0.01123   0.00631  -0.0383   0.0077   0.8728
   7.750   1.0222   0.01165   0.00681  -0.0376   0.0073   0.8790
   7.900   1.0361   0.01200   0.00723  -0.0370   0.0071   0.8853
   8.050   1.0520   0.01212   0.00737  -0.0368   0.0071   0.8918
   8.200   1.0673   0.01229   0.00758  -0.0364   0.0070   0.8982
   8.350   1.0827   0.01244   0.00775  -0.0361   0.0069   0.9056
   8.500   1.0980   0.01259   0.00794  -0.0357   0.0068   0.9125
   8.650   1.1131   0.01275   0.00814  -0.0353   0.0066   0.9201
   8.800   1.1285   0.01286   0.00827  -0.0349   0.0064   0.9269
   8.950   1.1428   0.01307   0.00852  -0.0343   0.0062   0.9347
   9.100   1.1575   0.01320   0.00867  -0.0338   0.0060   0.9424
   9.400   1.1853   0.01347   0.00901  -0.0324   0.0055   0.9700
   9.550   1.2033   0.01368   0.00924  -0.0326   0.0052   1.0000
   9.700   1.2183   0.01392   0.00949  -0.0323   0.0049   1.0000
   9.850   1.2314   0.01437   0.00999  -0.0316   0.0046   1.0000
  10.000   1.2458   0.01466   0.01032  -0.0311   0.0045   1.0000
  10.150   1.2602   0.01495   0.01063  -0.0306   0.0044   1.0000
  10.300   1.2740   0.01529   0.01101  -0.0300   0.0043   1.0000
  10.450   1.2881   0.01559   0.01135  -0.0294   0.0041   1.0000
  10.600   1.3018   0.01593   0.01172  -0.0288   0.0039   1.0000
  10.750   1.3155   0.01625   0.01207  -0.0282   0.0037   1.0000
  10.900   1.3284   0.01665   0.01251  -0.0275   0.0036   1.0000
  11.050   1.3413   0.01704   0.01293  -0.0268   0.0034   1.0000
  11.200   1.3537   0.01747   0.01339  -0.0260   0.0032   1.0000
  11.350   1.3649   0.01802   0.01400  -0.0251   0.0030   1.0000
  11.500   1.3755   0.01861   0.01466  -0.0241   0.0029   1.0000
  11.650   1.3844   0.01937   0.01551  -0.0228   0.0027   1.0000
  11.800   1.3937   0.02004   0.01627  -0.0217   0.0027   1.0000
  11.950   1.4041   0.02056   0.01686  -0.0207   0.0027   1.0000
  12.100   1.4112   0.02132   0.01771  -0.0192   0.0026   1.0000
  12.250   1.4182   0.02191   0.01837  -0.0176   0.0026   1.0000
  12.400   1.4225   0.02264   0.01919  -0.0157   0.0026   1.0000
  12.550   1.4258   0.02344   0.02007  -0.0138   0.0025   1.0000
  12.700   1.4304   0.02414   0.02084  -0.0121   0.0024   1.0000
  12.850   1.4340   0.02494   0.02173  -0.0103   0.0023   1.0000
  13.000   1.4345   0.02600   0.02289  -0.0084   0.0023   1.0000
  13.150   1.4335   0.02722   0.02423  -0.0065   0.0023   1.0000
  13.300   1.4337   0.02833   0.02545  -0.0048   0.0023   1.0000
  13.450   1.4360   0.02930   0.02649  -0.0034   0.0022   1.0000
  13.600   1.4326   0.03077   0.02807  -0.0017   0.0022   1.0000
  13.750   1.4251   0.03266   0.03010   0.0001   0.0022   1.0000
  13.900   1.4274   0.03369   0.03118   0.0011   0.0020   1.0000
  14.050   1.4170   0.03591   0.03355   0.0026   0.0021   1.0000
  14.200   1.4109   0.03782   0.03555   0.0036   0.0021   1.0000
  14.350   1.4061   0.03965   0.03747   0.0044   0.0020   1.0000
  14.500   1.3976   0.04192   0.03985   0.0050   0.0020   1.0000
  14.650   1.3790   0.04534   0.04342   0.0054   0.0021   1.0000
  14.800   1.3652   0.04845   0.04664   0.0054   0.0021   1.0000
  14.950   1.3572   0.05100   0.04926   0.0051   0.0020   1.0000
  15.100   1.3381   0.05507   0.05345   0.0042   0.0020   1.0000
  15.250   1.3241   0.05871   0.05718   0.0030   0.0020   1.0000
  15.400   1.3111   0.06240   0.06096   0.0015   0.0021   1.0000
  15.550   1.2890   0.06772   0.06638  -0.0011   0.0020   1.0000
  15.700   1.2786   0.07161   0.07033  -0.0032   0.0020   1.0000
  15.850   1.2583   0.07751   0.07633  -0.0070   0.0021   1.0000
  16.000   1.2496   0.08180   0.08066  -0.0098   0.0020   1.0000
  16.150   1.2234   0.09029   0.08926  -0.0160   0.0022   1.0000
  16.300   1.2105   0.09666   0.09567  -0.0206   0.0022   1.0000
  16.900   0.8838   0.20657   0.20568  -0.0831   0.0018   1.0000
  17.050   0.8867   0.20971   0.20881  -0.0848   0.0018   1.0000
  17.200   0.8913   0.21192   0.21103  -0.0862   0.0017   1.0000
  17.350   0.8954   0.21444   0.21354  -0.0876   0.0017   1.0000
  17.500   0.8996   0.21688   0.21599  -0.0891   0.0017   1.0000
  17.650   0.9040   0.21921   0.21832  -0.0906   0.0016   1.0000
  17.800   0.9070   0.22243   0.22153  -0.0923   0.0015   1.0000
  17.950   0.9093   0.22601   0.22511  -0.0941   0.0015   1.0000
  18.100   0.9107   0.23033   0.22942  -0.0961   0.0014   1.0000
  18.250   0.9151   0.23288   0.23197  -0.0976   0.0014   1.0000
  18.400   0.9186   0.23599   0.23508  -0.0992   0.0014   1.0000
  18.550   0.9230   0.23856   0.23765  -0.1007   0.0014   1.0000
  18.700   0.9275   0.24106   0.24015  -0.1022   0.0014   1.0000
  18.850   0.9321   0.24345   0.24255  -0.1036   0.0014   1.0000
  19.000   0.9367   0.24600   0.24509  -0.1051   0.0013   1.0000
  19.150   0.9410   0.24876   0.24785  -0.1065   0.0012   1.0000
  19.300   0.9453   0.25161   0.25070  -0.1081   0.0012   1.0000
  19.450   0.9495   0.25461   0.25370  -0.1096   0.0010   1.0000
  19.600   0.9540   0.25725   0.25634  -0.1111   0.0010   1.0000
  19.750   0.9587   0.25966   0.25874  -0.1125   0.0009   1.0000
  19.900   0.9634   0.26201   0.26109  -0.1140   0.0009   1.0000
  20.050   0.9681   0.26443   0.26352  -0.1154   0.0008   1.0000
