  
       XFOIL         Version 6.99
  
 Calculated polar for: NACA 0012                                       
  
 1 1 Reynolds number fixed          Mach number fixed         
  
 xtrf =   1.000 (top)        1.000 (bottom)  
 Mach =   0.200     Re =     3.000 e 6     Ncrit =   7.000
  
   alpha    CL        CD       CDp       CM     Top_Xtr  Bot_Xtr
  ------ -------- --------- --------- -------- -------- --------
  -5.000  -0.5669   0.00720   0.00229  -0.0023   0.8793   0.0691
  -4.850  -0.5502   0.00712   0.00220  -0.0021   0.8694   0.0734
  -4.700  -0.5335   0.00705   0.00212  -0.0019   0.8581   0.0792
  -4.550  -0.5167   0.00696   0.00203  -0.0018   0.8470   0.0851
  -4.400  -0.4999   0.00688   0.00195  -0.0016   0.8357   0.0920
  -4.250  -0.4831   0.00682   0.00187  -0.0015   0.8236   0.0982
  -4.100  -0.4664   0.00673   0.00179  -0.0013   0.8110   0.1071
  -3.950  -0.4494   0.00667   0.00173  -0.0012   0.7984   0.1136
  -3.800  -0.4326   0.00659   0.00165  -0.0011   0.7861   0.1230
  -3.650  -0.4158   0.00652   0.00158  -0.0010   0.7730   0.1328
  -3.500  -0.3988   0.00647   0.00152  -0.0009   0.7599   0.1412
  -3.350  -0.3819   0.00639   0.00146  -0.0008   0.7470   0.1529
  -3.200  -0.3650   0.00632   0.00140  -0.0007   0.7340   0.1644
  -3.050  -0.3480   0.00628   0.00134  -0.0007   0.7201   0.1739
  -2.900  -0.3310   0.00622   0.00129  -0.0006   0.7061   0.1854
  -2.600  -0.2971   0.00610   0.00119  -0.0005   0.6785   0.2114
  -2.450  -0.2801   0.00604   0.00114  -0.0004   0.6656   0.2237
  -2.300  -0.2630   0.00600   0.00110  -0.0004   0.6527   0.2368
  -2.150  -0.2459   0.00596   0.00107  -0.0003   0.6386   0.2487
  -2.000  -0.2289   0.00592   0.00103  -0.0003   0.6244   0.2621
  -1.850  -0.2118   0.00587   0.00100  -0.0002   0.6107   0.2767
  -1.700  -0.1947   0.00583   0.00097  -0.0002   0.5969   0.2900
  -1.550  -0.1775   0.00579   0.00094  -0.0002   0.5844   0.3034
  -1.400  -0.1604   0.00577   0.00091  -0.0001   0.5709   0.3171
  -1.250  -0.1433   0.00574   0.00089  -0.0001   0.5574   0.3309
  -1.100  -0.1260   0.00572   0.00087  -0.0001   0.5441   0.3443
  -0.950  -0.1089   0.00569   0.00085  -0.0001   0.5308   0.3586
  -0.800  -0.0917   0.00567   0.00084  -0.0001   0.5173   0.3725
  -0.650  -0.0746   0.00566   0.00083  -0.0001   0.5035   0.3860
  -0.500  -0.0574   0.00565   0.00082  -0.0000   0.4898   0.3997
  -0.350  -0.0401   0.00564   0.00081  -0.0000   0.4763   0.4127
  -0.050  -0.0057   0.00563   0.00080  -0.0000   0.4496   0.4409
   0.100   0.0115   0.00563   0.00080   0.0000   0.4364   0.4540
   0.250   0.0287   0.00563   0.00081   0.0000   0.4224   0.4670
   0.400   0.0459   0.00564   0.00081   0.0000   0.4087   0.4803
   0.550   0.0631   0.00566   0.00082   0.0000   0.3947   0.4943
   0.700   0.0803   0.00567   0.00083   0.0000   0.3816   0.5079
   0.850   0.0975   0.00568   0.00084   0.0001   0.3675   0.5216
   1.000   0.1147   0.00570   0.00086   0.0001   0.3543   0.5343
   1.150   0.1318   0.00572   0.00088   0.0001   0.3404   0.5483
   1.300   0.1490   0.00575   0.00090   0.0001   0.3262   0.5618
   1.450   0.1661   0.00579   0.00092   0.0001   0.3116   0.5753
   1.600   0.1832   0.00582   0.00095   0.0002   0.2978   0.5885
   1.750   0.2004   0.00585   0.00098   0.0002   0.2849   0.6020
   1.900   0.2175   0.00588   0.00101   0.0002   0.2716   0.6152
   2.050   0.2346   0.00592   0.00104   0.0003   0.2591   0.6287
   2.200   0.2517   0.00597   0.00108   0.0003   0.2458   0.6426
   2.350   0.2687   0.00602   0.00112   0.0004   0.2315   0.6566
   2.500   0.2857   0.00608   0.00116   0.0004   0.2176   0.6699
   2.650   0.3028   0.00612   0.00121   0.0005   0.2064   0.6837
   2.800   0.3198   0.00616   0.00125   0.0005   0.1949   0.6974
   2.950   0.3368   0.00623   0.00130   0.0006   0.1828   0.7112
   3.100   0.3537   0.00630   0.00136   0.0007   0.1700   0.7244
   3.250   0.3706   0.00635   0.00142   0.0008   0.1595   0.7379
   3.400   0.3876   0.00641   0.00148   0.0008   0.1492   0.7509
   3.550   0.4045   0.00648   0.00154   0.0009   0.1390   0.7638
   3.700   0.4213   0.00656   0.00161   0.0010   0.1282   0.7771
   3.850   0.4383   0.00662   0.00167   0.0011   0.1204   0.7901
   4.000   0.4551   0.00669   0.00175   0.0013   0.1114   0.8031
   4.150   0.4719   0.00676   0.00182   0.0014   0.1039   0.8153
   4.300   0.4888   0.00683   0.00190   0.0015   0.0963   0.8273
   4.450   0.5055   0.00692   0.00198   0.0017   0.0892   0.8398
   4.600   0.5224   0.00698   0.00206   0.0018   0.0839   0.8512
   4.750   0.5390   0.00708   0.00215   0.0020   0.0770   0.8618
   4.900   0.5559   0.00714   0.00223   0.0021   0.0722   0.8728
   5.050   0.5724   0.00723   0.00232   0.0023   0.0672   0.8830
   5.200   0.5893   0.00732   0.00241   0.0025   0.0632   0.8922
   5.350   0.6058   0.00740   0.00250   0.0027   0.0595   0.9021
   5.500   0.6224   0.00750   0.00261   0.0029   0.0547   0.9103
   5.650   0.6389   0.00758   0.00270   0.0031   0.0521   0.9191
   5.800   0.6554   0.00769   0.00280   0.0034   0.0487   0.9265
   5.950   0.6718   0.00778   0.00290   0.0037   0.0462   0.9345
   6.100   0.6884   0.00788   0.00300   0.0039   0.0438   0.9411
   6.250   0.7043   0.00801   0.00313   0.0042   0.0404   0.9481
   6.400   0.7208   0.00810   0.00322   0.0045   0.0390   0.9542
   6.550   0.7371   0.00821   0.00333   0.0048   0.0372   0.9596
   6.700   0.7533   0.00834   0.00346   0.0051   0.0350   0.9654
   6.850   0.7698   0.00845   0.00357   0.0053   0.0336   0.9701
   7.000   0.7870   0.00856   0.00368   0.0054   0.0323   0.9741
   7.150   0.8040   0.00870   0.00381   0.0056   0.0307   0.9782
   7.300   0.8205   0.00884   0.00394   0.0058   0.0288   0.9820
   7.450   0.8390   0.00896   0.00406   0.0056   0.0279   0.9844
   7.600   0.8580   0.00910   0.00420   0.0053   0.0268   0.9866
   7.750   0.8766   0.00926   0.00435   0.0050   0.0255   0.9888
   7.900   0.8946   0.00942   0.00450   0.0049   0.0242   0.9910
   8.050   0.9125   0.00955   0.00463   0.0048   0.0237   0.9931
   8.200   0.9315   0.00970   0.00478   0.0045   0.0228   0.9942
   8.350   0.9513   0.00987   0.00494   0.0040   0.0218   0.9948
   8.500   0.9710   0.01006   0.00513   0.0035   0.0206   0.9954
   8.650   0.9907   0.01022   0.00529   0.0030   0.0201   0.9960
   8.800   1.0103   0.01038   0.00545   0.0026   0.0196   0.9967
   8.950   1.0297   0.01055   0.00562   0.0022   0.0190   0.9975
   9.100   1.0489   0.01074   0.00581   0.0018   0.0183   0.9982
   9.250   1.0679   0.01094   0.00601   0.0014   0.0176   0.9989
   9.400   1.0868   0.01115   0.00622   0.0011   0.0168   0.9995
   9.550   1.1060   0.01132   0.00640   0.0008   0.0166   0.9999
   9.700   1.1202   0.01148   0.00657   0.0015   0.0163   1.0000
   9.850   1.1338   0.01165   0.00675   0.0023   0.0160   1.0000
  10.000   1.1474   0.01183   0.00693   0.0032   0.0155   1.0000
  10.150   1.1611   0.01202   0.00712   0.0039   0.0151   1.0000
  10.300   1.1747   0.01222   0.00733   0.0047   0.0146   1.0000
  10.450   1.1884   0.01245   0.00757   0.0055   0.0141   1.0000
  10.600   1.2025   0.01265   0.00779   0.0062   0.0138   1.0000
  10.750   1.2171   0.01284   0.00799   0.0069   0.0136   1.0000
  10.900   1.2317   0.01304   0.00820   0.0074   0.0134   1.0000
  11.050   1.2464   0.01325   0.00843   0.0080   0.0132   1.0000
  11.200   1.2611   0.01347   0.00866   0.0086   0.0129   1.0000
  11.350   1.2756   0.01370   0.00891   0.0092   0.0126   1.0000
  11.500   1.2901   0.01395   0.00916   0.0098   0.0123   1.0000
  11.650   1.3044   0.01420   0.00943   0.0104   0.0121   1.0000
  11.800   1.3185   0.01448   0.00972   0.0110   0.0117   1.0000
  11.950   1.3323   0.01479   0.01005   0.0117   0.0114   1.0000
  12.100   1.3461   0.01509   0.01038   0.0123   0.0111   1.0000
  12.250   1.3604   0.01534   0.01066   0.0129   0.0111   1.0000
  12.400   1.3745   0.01561   0.01094   0.0136   0.0109   1.0000
  12.550   1.3884   0.01588   0.01124   0.0142   0.0108   1.0000
  12.700   1.4021   0.01617   0.01156   0.0149   0.0107   1.0000
  12.850   1.4156   0.01647   0.01188   0.0156   0.0105   1.0000
  13.000   1.4287   0.01679   0.01222   0.0163   0.0103   1.0000
  13.150   1.4416   0.01711   0.01257   0.0171   0.0101   1.0000
  13.300   1.4542   0.01746   0.01294   0.0179   0.0099   1.0000
  13.450   1.4664   0.01781   0.01331   0.0187   0.0097   1.0000
  13.600   1.4781   0.01819   0.01372   0.0196   0.0095   1.0000
  13.750   1.4892   0.01860   0.01416   0.0206   0.0093   1.0000
  13.900   1.4993   0.01905   0.01464   0.0217   0.0091   1.0000
  14.050   1.5075   0.01952   0.01515   0.0231   0.0089   1.0000
  14.200   1.5150   0.01998   0.01565   0.0246   0.0088   1.0000
  14.350   1.5232   0.02040   0.01610   0.0259   0.0088   1.0000
  14.500   1.5313   0.02084   0.01659   0.0272   0.0087   1.0000
  14.650   1.5390   0.02132   0.01711   0.0285   0.0087   1.0000
  14.800   1.5464   0.02185   0.01767   0.0298   0.0086   1.0000
  14.950   1.5533   0.02240   0.01827   0.0310   0.0085   1.0000
  15.100   1.5598   0.02302   0.01893   0.0322   0.0084   1.0000
  15.250   1.5660   0.02367   0.01962   0.0333   0.0084   1.0000
  15.400   1.5717   0.02439   0.02038   0.0343   0.0083   1.0000
  15.550   1.5768   0.02517   0.02121   0.0353   0.0082   1.0000
  15.700   1.5816   0.02601   0.02210   0.0362   0.0081   1.0000
  15.850   1.5859   0.02694   0.02307   0.0370   0.0080   1.0000
  16.000   1.5895   0.02794   0.02412   0.0377   0.0080   1.0000
  16.150   1.5926   0.02905   0.02528   0.0383   0.0079   1.0000
  16.300   1.5954   0.03024   0.02652   0.0387   0.0078   1.0000
  16.450   1.5970   0.03160   0.02793   0.0390   0.0077   1.0000
  16.600   1.5982   0.03305   0.02944   0.0392   0.0077   1.0000
  16.750   1.5986   0.03465   0.03110   0.0391   0.0076   1.0000
  16.900   1.5982   0.03642   0.03293   0.0389   0.0076   1.0000
  17.050   1.5967   0.03835   0.03492   0.0385   0.0075   1.0000
  17.200   1.5940   0.04050   0.03712   0.0379   0.0074   1.0000
  17.350   1.5902   0.04287   0.03956   0.0371   0.0074   1.0000
  17.500   1.5853   0.04545   0.04220   0.0361   0.0074   1.0000
  17.650   1.5786   0.04829   0.04511   0.0349   0.0073   1.0000
  17.800   1.5703   0.05143   0.04832   0.0335   0.0073   1.0000
  17.950   1.5602   0.05485   0.05182   0.0318   0.0073   1.0000
  18.100   1.5482   0.05861   0.05565   0.0299   0.0072   1.0000
  18.250   1.5340   0.06266   0.05978   0.0278   0.0072   1.0000
  18.400   1.5181   0.06707   0.06426   0.0255   0.0072   1.0000
  18.550   1.5004   0.07180   0.06908   0.0230   0.0072   1.0000
  18.700   1.4793   0.07703   0.07438   0.0202   0.0072   1.0000
  18.850   1.4575   0.08247   0.07990   0.0173   0.0073   1.0000
  19.000   1.4326   0.08844   0.08596   0.0141   0.0073   1.0000
  19.150   1.4050   0.09487   0.09247   0.0106   0.0074   1.0000
  19.300   1.3760   0.10166   0.09935   0.0068   0.0074   1.0000
  19.450   1.3447   0.10892   0.10670   0.0028   0.0075   1.0000
  19.600   1.3116   0.11661   0.11448  -0.0016   0.0075   1.0000
  19.750   1.2796   0.12433   0.12228  -0.0060   0.0076   1.0000
  19.900   1.2496   0.13185   0.12989  -0.0105   0.0077   1.0000
  20.050   1.2203   0.13946   0.13758  -0.0151   0.0077   1.0000
