  
       XFOIL         Version 6.99
  
 Calculated polar for: NACA 65-410                                     
  
 1 1 Reynolds number fixed          Mach number fixed         
  
 xtrf =   1.000 (top)        1.000 (bottom)  
 Mach =   0.200     Re =     3.000 e 6     Ncrit =   7.000
  
   alpha    CL        CD       CDp       CM     Top_Xtr  Bot_Xtr
  ------ -------- --------- --------- -------- -------- --------
  -5.000  -0.2180   0.00715   0.00234  -0.0808   0.7763   0.0112
  -4.850  -0.2008   0.00701   0.00217  -0.0808   0.7724   0.0117
  -4.700  -0.1837   0.00687   0.00199  -0.0809   0.7682   0.0125
  -4.550  -0.1665   0.00679   0.00190  -0.0809   0.7646   0.0132
  -4.400  -0.1490   0.00672   0.00183  -0.0810   0.7611   0.0137
  -4.250  -0.1317   0.00665   0.00176  -0.0811   0.7572   0.0142
  -4.100  -0.1144   0.00659   0.00167  -0.0812   0.7532   0.0146
  -3.950  -0.0970   0.00652   0.00159  -0.0813   0.7500   0.0149
  -3.800  -0.0795   0.00646   0.00153  -0.0814   0.7467   0.0153
  -3.650  -0.0621   0.00640   0.00146  -0.0815   0.7430   0.0156
  -3.500  -0.0448   0.00636   0.00139  -0.0816   0.7392   0.0158
  -3.350  -0.0274   0.00631   0.00133  -0.0817   0.7358   0.0160
  -3.200  -0.0099   0.00622   0.00121  -0.0818   0.7324   0.0168
  -3.050   0.0075   0.00614   0.00111  -0.0819   0.7286   0.0182
  -2.900   0.0249   0.00609   0.00106  -0.0820   0.7247   0.0195
  -2.750   0.0423   0.00603   0.00101  -0.0821   0.7215   0.0209
  -2.600   0.0598   0.00599   0.00096  -0.0823   0.7183   0.0220
  -2.450   0.0773   0.00595   0.00092  -0.0824   0.7146   0.0227
  -2.300   0.0947   0.00593   0.00088  -0.0825   0.7107   0.0230
  -2.150   0.1121   0.00589   0.00083  -0.0826   0.7073   0.0253
  -2.000   0.1297   0.00584   0.00079  -0.0828   0.7041   0.0289
  -1.850   0.1471   0.00579   0.00075  -0.0829   0.7004   0.0318
  -1.700   0.1645   0.00577   0.00072  -0.0830   0.6967   0.0349
  -1.550   0.1820   0.00572   0.00069  -0.0832   0.6933   0.0431
  -1.400   0.1995   0.00561   0.00065  -0.0834   0.6902   0.0691
  -1.250   0.2170   0.00548   0.00062  -0.0836   0.6868   0.1081
  -1.100   0.2343   0.00530   0.00058  -0.0839   0.6832   0.1662
  -0.950   0.2517   0.00503   0.00053  -0.0842   0.6797   0.2580
  -0.800   0.2693   0.00475   0.00049  -0.0846   0.6770   0.3439
  -0.650   0.2868   0.00441   0.00045  -0.0850   0.6738   0.4523
  -0.500   0.3042   0.00416   0.00044  -0.0854   0.6702   0.5410
  -0.350   0.3215   0.00410   0.00044  -0.0855   0.6657   0.5754
  -0.200   0.3391   0.00404   0.00045  -0.0857   0.6615   0.6009
  -0.050   0.3565   0.00403   0.00046  -0.0858   0.6559   0.6182
   0.100   0.3739   0.00403   0.00047  -0.0860   0.6501   0.6335
   0.250   0.3913   0.00401   0.00049  -0.0861   0.6432   0.6528
   0.400   0.4084   0.00404   0.00051  -0.0862   0.6323   0.6643
   0.550   0.4256   0.00407   0.00053  -0.0862   0.6241   0.6713
   0.700   0.4430   0.00409   0.00054  -0.0864   0.6177   0.6768
   0.850   0.4601   0.00414   0.00056  -0.0864   0.6072   0.6808
   1.000   0.4773   0.00419   0.00059  -0.0865   0.5960   0.6848
   1.150   0.4941   0.00426   0.00062  -0.0865   0.5813   0.6887
   1.300   0.5109   0.00435   0.00065  -0.0865   0.5639   0.6924
   1.450   0.5269   0.00451   0.00070  -0.0863   0.5338   0.6958
   1.600   0.5417   0.00478   0.00080  -0.0860   0.4825   0.6999
   1.750   0.5557   0.00514   0.00093  -0.0856   0.4223   0.7039
   1.900   0.5684   0.00566   0.00113  -0.0850   0.3368   0.7075
   2.050   0.5808   0.00622   0.00134  -0.0843   0.2446   0.7111
   2.200   0.5954   0.00653   0.00148  -0.0840   0.1943   0.7152
   2.350   0.6106   0.00679   0.00160  -0.0838   0.1549   0.7193
   2.500   0.6256   0.00708   0.00173  -0.0835   0.1135   0.7228
   2.650   0.6410   0.00732   0.00186  -0.0833   0.0798   0.7265
   2.800   0.6566   0.00754   0.00199  -0.0831   0.0536   0.7306
   2.950   0.6725   0.00771   0.00210  -0.0830   0.0362   0.7345
   3.100   0.6892   0.00781   0.00218  -0.0829   0.0319   0.7380
   3.250   0.7059   0.00790   0.00226  -0.0829   0.0290   0.7422
   3.400   0.7226   0.00799   0.00235  -0.0829   0.0257   0.7464
   3.550   0.7394   0.00807   0.00244  -0.0829   0.0240   0.7502
   3.700   0.7562   0.00815   0.00253  -0.0828   0.0236   0.7537
   3.850   0.7729   0.00823   0.00262  -0.0828   0.0227   0.7579
   4.000   0.7895   0.00833   0.00271  -0.0828   0.0206   0.7622
   4.150   0.8058   0.00846   0.00282  -0.0827   0.0176   0.7662
   4.300   0.8224   0.00855   0.00293  -0.0826   0.0162   0.7704
   4.450   0.8389   0.00865   0.00304  -0.0825   0.0152   0.7751
   4.600   0.8552   0.00878   0.00315  -0.0824   0.0138   0.7795
   4.750   0.8714   0.00891   0.00328  -0.0823   0.0121   0.7835
   4.900   0.8875   0.00905   0.00345  -0.0821   0.0112   0.7882
   5.050   0.9039   0.00916   0.00357  -0.0820   0.0111   0.7928
   5.350   0.9365   0.00940   0.00385  -0.0817   0.0108   0.8017
   5.500   0.9527   0.00953   0.00400  -0.0816   0.0106   0.8067
   5.800   0.9848   0.00980   0.00432  -0.0812   0.0103   0.8164
   5.950   1.0007   0.00994   0.00448  -0.0810   0.0101   0.8217
   6.100   1.0166   0.01010   0.00466  -0.0808   0.0099   0.8263
   6.250   1.0323   0.01025   0.00484  -0.0805   0.0097   0.8316
   6.400   1.0480   0.01042   0.00502  -0.0803   0.0095   0.8368
   6.550   1.0637   0.01058   0.00521  -0.0800   0.0093   0.8414
   6.700   1.0792   0.01074   0.00539  -0.0797   0.0090   0.8467
   6.850   1.0945   0.01095   0.00562  -0.0794   0.0086   0.8520
   7.000   1.1093   0.01118   0.00588  -0.0789   0.0083   0.8574
   7.150   1.1228   0.01154   0.00632  -0.0782   0.0078   0.8639
   7.300   1.1370   0.01183   0.00665  -0.0777   0.0076   0.8698
   7.450   1.1520   0.01202   0.00689  -0.0773   0.0076   0.8766
   7.750   1.1818   0.01239   0.00732  -0.0765   0.0075   0.8906
   8.050   1.2108   0.01280   0.00782  -0.0755   0.0073   0.9059
   8.200   1.2254   0.01299   0.00804  -0.0750   0.0072   0.9133
   8.350   1.2395   0.01319   0.00828  -0.0744   0.0070   0.9215
   8.500   1.2537   0.01337   0.00849  -0.0738   0.0069   0.9289
   8.650   1.2677   0.01355   0.00870  -0.0732   0.0067   0.9374
   8.800   1.2806   0.01375   0.00895  -0.0724   0.0065   0.9469
   8.950   1.2921   0.01394   0.00919  -0.0712   0.0064   0.9642
   9.100   1.3068   0.01414   0.00943  -0.0708   0.0062   1.0000
   9.250   1.3214   0.01436   0.00966  -0.0703   0.0060   1.0000
   9.400   1.3358   0.01459   0.00990  -0.0698   0.0058   1.0000
   9.550   1.3500   0.01483   0.01015  -0.0693   0.0057   1.0000
   9.700   1.3633   0.01516   0.01050  -0.0686   0.0054   1.0000
   9.850   1.3746   0.01565   0.01106  -0.0676   0.0051   1.0000
  10.000   1.3873   0.01601   0.01145  -0.0669   0.0050   1.0000
  10.150   1.4008   0.01627   0.01173  -0.0662   0.0049   1.0000
  10.300   1.4142   0.01653   0.01202  -0.0656   0.0049   1.0000
  10.450   1.4277   0.01678   0.01228  -0.0649   0.0047   1.0000
  10.600   1.4409   0.01703   0.01256  -0.0642   0.0045   1.0000
  10.750   1.4537   0.01730   0.01285  -0.0635   0.0043   1.0000
  10.900   1.4653   0.01763   0.01320  -0.0625   0.0041   1.0000
  11.050   1.4766   0.01789   0.01348  -0.0615   0.0039   1.0000
  11.200   1.4866   0.01822   0.01383  -0.0602   0.0037   1.0000
  11.350   1.4963   0.01856   0.01419  -0.0589   0.0035   1.0000
  11.500   1.5045   0.01901   0.01467  -0.0574   0.0032   1.0000
  11.650   1.5119   0.01953   0.01524  -0.0558   0.0031   1.0000
  11.800   1.5197   0.02002   0.01579  -0.0544   0.0030   1.0000
  11.950   1.5273   0.02053   0.01636  -0.0529   0.0030   1.0000
  12.100   1.5350   0.02105   0.01693  -0.0515   0.0029   1.0000
  12.250   1.5418   0.02164   0.01759  -0.0500   0.0028   1.0000
  12.400   1.5490   0.02222   0.01822  -0.0486   0.0027   1.0000
  12.550   1.5553   0.02288   0.01894  -0.0471   0.0026   1.0000
  12.700   1.5619   0.02351   0.01963  -0.0458   0.0025   1.0000
  12.850   1.5677   0.02424   0.02042  -0.0444   0.0024   1.0000
  13.000   1.5730   0.02502   0.02126  -0.0429   0.0023   1.0000
  13.150   1.5778   0.02585   0.02215  -0.0415   0.0022   1.0000
  13.300   1.5813   0.02680   0.02319  -0.0401   0.0022   1.0000
  13.450   1.5851   0.02776   0.02421  -0.0387   0.0021   1.0000
  13.600   1.5872   0.02887   0.02541  -0.0373   0.0020   1.0000
  13.750   1.5873   0.03019   0.02683  -0.0358   0.0019   1.0000
  13.900   1.5874   0.03153   0.02827  -0.0344   0.0018   1.0000
  14.050   1.5853   0.03311   0.02996  -0.0329   0.0017   1.0000
  14.200   1.5828   0.03474   0.03170  -0.0316   0.0017   1.0000
  14.350   1.5811   0.03632   0.03338  -0.0305   0.0017   1.0000
  14.500   1.5798   0.03789   0.03504  -0.0294   0.0017   1.0000
  14.650   1.5751   0.03984   0.03710  -0.0284   0.0017   1.0000
  14.800   1.5716   0.04173   0.03909  -0.0276   0.0017   1.0000
  14.950   1.5672   0.04374   0.04119  -0.0269   0.0016   1.0000
  15.100   1.5600   0.04613   0.04369  -0.0264   0.0017   1.0000
  15.250   1.5523   0.04865   0.04632  -0.0260   0.0016   1.0000
  15.400   1.5443   0.05128   0.04905  -0.0259   0.0016   1.0000
  15.550   1.5351   0.05416   0.05203  -0.0259   0.0016   1.0000
  15.700   1.5260   0.05712   0.05509  -0.0263   0.0016   1.0000
  15.850   1.5130   0.06076   0.05883  -0.0269   0.0016   1.0000
  16.000   1.5038   0.06400   0.06216  -0.0278   0.0016   1.0000
  16.150   1.4920   0.06778   0.06603  -0.0290   0.0016   1.0000
  16.300   1.4781   0.07206   0.07041  -0.0306   0.0016   1.0000
  16.450   1.4658   0.07632   0.07475  -0.0325   0.0016   1.0000
  16.600   1.4514   0.08113   0.07965  -0.0349   0.0016   1.0000
  16.750   1.4377   0.08609   0.08469  -0.0376   0.0016   1.0000
  16.900   1.4228   0.09154   0.09022  -0.0408   0.0016   1.0000
  17.050   1.4057   0.09781   0.09656  -0.0448   0.0016   1.0000
  17.200   1.3901   0.10413   0.10295  -0.0489   0.0016   1.0000
  17.350   1.3727   0.11120   0.11010  -0.0537   0.0016   1.0000
  17.500   1.3509   0.11978   0.11875  -0.0595   0.0017   1.0000
  17.650   1.3165   0.13219   0.13125  -0.0676   0.0017   1.0000
  17.800   1.1762   0.17226   0.17144  -0.0927   0.0024   1.0000
  18.250   1.0355   0.23713   0.23631  -0.1286   0.0017   1.0000
  18.400   1.0388   0.24013   0.23931  -0.1303   0.0016   1.0000
  18.550   1.0421   0.24328   0.24246  -0.1321   0.0016   1.0000
  18.700   1.0456   0.24628   0.24546  -0.1338   0.0015   1.0000
  18.850   1.0483   0.24995   0.24913  -0.1357   0.0014   1.0000
  19.000   1.0516   0.25330   0.25248  -0.1375   0.0012   1.0000
  19.150   1.0556   0.25611   0.25529  -0.1391   0.0011   1.0000
  19.300   1.0598   0.25867   0.25784  -0.1407   0.0010   1.0000
  19.450   1.0639   0.26138   0.26056  -0.1423   0.0010   1.0000
  19.600   1.0684   0.26372   0.26290  -0.1438   0.0010   1.0000
  19.750   1.0726   0.26642   0.26559  -0.1454   0.0009   1.0000
  19.900   1.0769   0.26898   0.26816  -0.1470   0.0009   1.0000
  20.050   1.0810   0.27188   0.27105  -0.1486   0.0009   1.0000
