  
       XFOIL         Version 6.99
  
 Calculated polar for: NACA 65-410                                     
  
 1 1 Reynolds number fixed          Mach number fixed         
  
 xtrf =   1.000 (top)        1.000 (bottom)  
 Mach =   0.200     Re =     3.200 e 6     Ncrit =   7.000
  
   alpha    CL        CD       CDp       CM     Top_Xtr  Bot_Xtr
  ------ -------- --------- --------- -------- -------- --------
  -5.000  -0.2181   0.00702   0.00225  -0.0808   0.7723   0.0112
  -4.850  -0.2009   0.00697   0.00219  -0.0808   0.7682   0.0113
  -4.700  -0.1838   0.00679   0.00195  -0.0809   0.7645   0.0122
  -4.550  -0.1664   0.00668   0.00183  -0.0810   0.7610   0.0129
  -4.400  -0.1491   0.00662   0.00176  -0.0810   0.7571   0.0135
  -4.250  -0.1318   0.00656   0.00169  -0.0811   0.7531   0.0140
  -4.100  -0.1144   0.00649   0.00161  -0.0812   0.7499   0.0144
  -3.950  -0.0969   0.00642   0.00154  -0.0813   0.7466   0.0148
  -3.800  -0.0795   0.00636   0.00147  -0.0814   0.7429   0.0152
  -3.650  -0.0622   0.00632   0.00140  -0.0815   0.7391   0.0155
  -3.500  -0.0448   0.00626   0.00134  -0.0816   0.7357   0.0158
  -3.350  -0.0272   0.00621   0.00128  -0.0817   0.7323   0.0159
  -3.200  -0.0098   0.00616   0.00121  -0.0819   0.7285   0.0162
  -3.050   0.0075   0.00608   0.00109  -0.0819   0.7246   0.0176
  -2.900   0.0250   0.00602   0.00103  -0.0821   0.7214   0.0191
  -2.750   0.0425   0.00596   0.00098  -0.0822   0.7182   0.0206
  -2.600   0.0600   0.00591   0.00094  -0.0823   0.7145   0.0218
  -2.450   0.0774   0.00589   0.00090  -0.0824   0.7106   0.0226
  -2.300   0.0948   0.00586   0.00086  -0.0826   0.7072   0.0230
  -2.150   0.1124   0.00582   0.00081  -0.0827   0.7040   0.0245
  -2.000   0.1299   0.00577   0.00077  -0.0829   0.7004   0.0282
  -1.850   0.1473   0.00573   0.00073  -0.0830   0.6965   0.0313
  -1.700   0.1647   0.00570   0.00070  -0.0831   0.6932   0.0336
  -1.550   0.1823   0.00565   0.00067  -0.0833   0.6902   0.0417
  -1.400   0.1998   0.00558   0.00064  -0.0834   0.6867   0.0595
  -1.250   0.2171   0.00545   0.00061  -0.0836   0.6830   0.0975
  -1.100   0.2345   0.00530   0.00057  -0.0839   0.6795   0.1484
  -0.950   0.2521   0.00504   0.00053  -0.0842   0.6769   0.2306
  -0.800   0.2696   0.00478   0.00049  -0.0846   0.6737   0.3154
  -0.650   0.2871   0.00448   0.00045  -0.0850   0.6702   0.4141
  -0.500   0.3044   0.00417   0.00043  -0.0854   0.6660   0.5218
  -0.350   0.3220   0.00407   0.00043  -0.0856   0.6622   0.5627
  -0.200   0.3394   0.00402   0.00044  -0.0858   0.6568   0.5907
  -0.050   0.3567   0.00401   0.00045  -0.0859   0.6508   0.6102
   0.100   0.3743   0.00398   0.00046  -0.0860   0.6458   0.6255
   0.250   0.3914   0.00399   0.00048  -0.0861   0.6371   0.6460
   0.400   0.4086   0.00400   0.00050  -0.0862   0.6262   0.6589
   0.700   0.4433   0.00405   0.00053  -0.0864   0.6112   0.6726
   0.850   0.4604   0.00410   0.00055  -0.0865   0.6003   0.6774
   1.000   0.4775   0.00416   0.00057  -0.0865   0.5888   0.6809
   1.150   0.4944   0.00423   0.00060  -0.0865   0.5731   0.6849
   1.300   0.5108   0.00435   0.00065  -0.0865   0.5516   0.6889
   1.450   0.5264   0.00455   0.00071  -0.0863   0.5126   0.6925
   1.600   0.5408   0.00487   0.00082  -0.0859   0.4563   0.6959
   1.750   0.5545   0.00527   0.00097  -0.0855   0.3885   0.7000
   1.900   0.5674   0.00577   0.00116  -0.0849   0.3052   0.7040
   2.050   0.5803   0.00627   0.00136  -0.0843   0.2216   0.7076
   2.350   0.6107   0.00680   0.00160  -0.0838   0.1400   0.7154
   2.500   0.6258   0.00707   0.00173  -0.0836   0.1009   0.7194
   2.650   0.6413   0.00730   0.00186  -0.0834   0.0706   0.7228
   2.800   0.6570   0.00751   0.00198  -0.0832   0.0452   0.7266
   2.950   0.6734   0.00764   0.00207  -0.0831   0.0339   0.7307
   3.100   0.6901   0.00773   0.00215  -0.0831   0.0310   0.7347
   3.250   0.7068   0.00783   0.00223  -0.0831   0.0279   0.7381
   3.400   0.7235   0.00790   0.00232  -0.0831   0.0249   0.7423
   3.550   0.7404   0.00798   0.00240  -0.0830   0.0239   0.7464
   3.700   0.7572   0.00805   0.00249  -0.0830   0.0234   0.7502
   3.850   0.7739   0.00814   0.00257  -0.0830   0.0222   0.7537
   4.000   0.7904   0.00825   0.00267  -0.0829   0.0199   0.7580
   4.150   0.8069   0.00836   0.00278  -0.0829   0.0168   0.7623
   4.300   0.8235   0.00846   0.00288  -0.0828   0.0160   0.7663
   4.450   0.8400   0.00856   0.00299  -0.0827   0.0148   0.7706
   4.600   0.8563   0.00868   0.00310  -0.0826   0.0133   0.7752
   4.750   0.8725   0.00882   0.00324  -0.0825   0.0115   0.7796
   4.900   0.8889   0.00894   0.00338  -0.0824   0.0112   0.7836
   5.050   0.9053   0.00904   0.00350  -0.0822   0.0110   0.7882
   5.200   0.9216   0.00916   0.00363  -0.0821   0.0108   0.7928
   5.500   0.9541   0.00940   0.00392  -0.0818   0.0105   0.8017
   5.650   0.9702   0.00954   0.00407  -0.0817   0.0103   0.8068
   5.950   1.0023   0.00981   0.00439  -0.0813   0.0099   0.8167
   6.100   1.0182   0.00996   0.00455  -0.0811   0.0097   0.8219
   6.250   1.0341   0.01011   0.00473  -0.0808   0.0095   0.8265
   6.400   1.0498   0.01027   0.00491  -0.0806   0.0093   0.8318
   6.550   1.0655   0.01043   0.00509  -0.0803   0.0091   0.8369
   6.700   1.0810   0.01061   0.00529  -0.0800   0.0087   0.8415
   6.850   1.0961   0.01083   0.00554  -0.0796   0.0083   0.8469
   7.000   1.1107   0.01109   0.00584  -0.0792   0.0080   0.8523
   7.150   1.1242   0.01146   0.00629  -0.0785   0.0076   0.8580
   7.300   1.1399   0.01159   0.00644  -0.0782   0.0076   0.8642
   7.450   1.1551   0.01178   0.00666  -0.0779   0.0075   0.8700
   7.600   1.1703   0.01195   0.00686  -0.0775   0.0075   0.8769
   7.900   1.1999   0.01235   0.00734  -0.0766   0.0073   0.8909
   8.050   1.2146   0.01254   0.00757  -0.0762   0.0072   0.8981
   8.200   1.2293   0.01272   0.00777  -0.0757   0.0071   0.9063
   8.350   1.2438   0.01292   0.00801  -0.0752   0.0069   0.9138
   8.500   1.2582   0.01310   0.00822  -0.0746   0.0067   0.9219
   8.650   1.2723   0.01329   0.00844  -0.0741   0.0066   0.9293
   8.800   1.2860   0.01349   0.00868  -0.0734   0.0064   0.9377
   8.950   1.2989   0.01370   0.00893  -0.0725   0.0063   0.9474
   9.100   1.3108   0.01386   0.00913  -0.0714   0.0061   0.9646
   9.250   1.3255   0.01404   0.00935  -0.0710   0.0059   1.0000
   9.400   1.3400   0.01428   0.00960  -0.0705   0.0057   1.0000
   9.550   1.3540   0.01455   0.00989  -0.0700   0.0055   1.0000
   9.700   1.3665   0.01494   0.01032  -0.0692   0.0053   1.0000
   9.850   1.3779   0.01544   0.01088  -0.0682   0.0050   1.0000
  10.000   1.3922   0.01564   0.01110  -0.0677   0.0050   1.0000
  10.150   1.4060   0.01589   0.01136  -0.0671   0.0049   1.0000
  10.300   1.4195   0.01614   0.01164  -0.0664   0.0048   1.0000
  10.450   1.4332   0.01638   0.01189  -0.0658   0.0046   1.0000
  10.600   1.4465   0.01663   0.01217  -0.0651   0.0044   1.0000
  10.750   1.4595   0.01691   0.01246  -0.0644   0.0042   1.0000
  10.900   1.4717   0.01723   0.01280  -0.0635   0.0040   1.0000
  11.050   1.4836   0.01750   0.01308  -0.0626   0.0038   1.0000
  11.200   1.4938   0.01783   0.01343  -0.0614   0.0036   1.0000
  11.350   1.5029   0.01821   0.01384  -0.0600   0.0033   1.0000
  11.500   1.5106   0.01869   0.01436  -0.0584   0.0031   1.0000
  11.650   1.5189   0.01913   0.01485  -0.0569   0.0030   1.0000
  11.800   1.5268   0.01960   0.01538  -0.0554   0.0030   1.0000
  11.950   1.5346   0.02009   0.01592  -0.0539   0.0029   1.0000
  12.100   1.5423   0.02059   0.01647  -0.0525   0.0028   1.0000
  12.250   1.5493   0.02115   0.01709  -0.0510   0.0027   1.0000
  12.400   1.5567   0.02171   0.01770  -0.0496   0.0026   1.0000
  12.550   1.5631   0.02234   0.01839  -0.0481   0.0025   1.0000
  12.700   1.5699   0.02296   0.01905  -0.0467   0.0024   1.0000
  12.850   1.5757   0.02368   0.01983  -0.0452   0.0023   1.0000
  13.000   1.5808   0.02445   0.02067  -0.0438   0.0022   1.0000
  13.150   1.5853   0.02529   0.02158  -0.0423   0.0021   1.0000
  13.300   1.5891   0.02622   0.02258  -0.0408   0.0020   1.0000
  13.450   1.5921   0.02722   0.02366  -0.0394   0.0019   1.0000
  13.600   1.5939   0.02836   0.02489  -0.0378   0.0018   1.0000
  13.750   1.5931   0.02976   0.02640  -0.0362   0.0017   1.0000
  13.900   1.5927   0.03113   0.02788  -0.0347   0.0017   1.0000
  14.050   1.5948   0.03227   0.02909  -0.0335   0.0017   1.0000
  14.200   1.5949   0.03362   0.03054  -0.0323   0.0017   1.0000
  14.350   1.5939   0.03512   0.03213  -0.0311   0.0017   1.0000
  14.500   1.5929   0.03663   0.03373  -0.0300   0.0016   1.0000
  14.650   1.5891   0.03845   0.03566  -0.0289   0.0016   1.0000
  14.800   1.5860   0.04026   0.03756  -0.0280   0.0016   1.0000
  14.950   1.5821   0.04219   0.03959  -0.0273   0.0016   1.0000
  15.100   1.5756   0.04444   0.04196  -0.0266   0.0016   1.0000
  15.250   1.5686   0.04683   0.04444  -0.0261   0.0016   1.0000
  15.400   1.5613   0.04933   0.04704  -0.0258   0.0016   1.0000
  15.550   1.5529   0.05204   0.04985  -0.0257   0.0016   1.0000
  15.700   1.5443   0.05485   0.05276  -0.0259   0.0016   1.0000
  15.850   1.5320   0.05828   0.05630  -0.0263   0.0016   1.0000
  16.000   1.5235   0.06136   0.05946  -0.0270   0.0015   1.0000
  16.150   1.5122   0.06493   0.06312  -0.0279   0.0015   1.0000
  16.300   1.4988   0.06899   0.06728  -0.0293   0.0015   1.0000
  16.450   1.4869   0.07302   0.07140  -0.0309   0.0015   1.0000
  16.600   1.4732   0.07756   0.07603  -0.0330   0.0015   1.0000
  16.750   1.4597   0.08226   0.08081  -0.0354   0.0015   1.0000
  16.900   1.4453   0.08739   0.08602  -0.0382   0.0015   1.0000
  17.050   1.4288   0.09324   0.09196  -0.0417   0.0015   1.0000
  17.200   1.4141   0.09907   0.09786  -0.0454   0.0016   1.0000
  17.350   1.3984   0.10545   0.10431  -0.0496   0.0016   1.0000
  17.500   1.3797   0.11284   0.11176  -0.0546   0.0016   1.0000
  17.650   1.3575   0.12152   0.12051  -0.0605   0.0016   1.0000
  17.800   1.3261   0.13305   0.13212  -0.0681   0.0016   1.0000
  18.100   1.0479   0.22559   0.22483  -0.1234   0.0021   1.0000
  18.250   1.0498   0.22918   0.22841  -0.1255   0.0019   1.0000
  18.400   1.0405   0.23931   0.23852  -0.1301   0.0016   1.0000
  18.550   1.0436   0.24255   0.24176  -0.1319   0.0016   1.0000
  18.700   1.0470   0.24558   0.24478  -0.1336   0.0015   1.0000
  18.850   1.0497   0.24924   0.24844  -0.1355   0.0014   1.0000
  19.000   1.0529   0.25258   0.25178  -0.1373   0.0012   1.0000
  19.150   1.0568   0.25544   0.25464  -0.1390   0.0011   1.0000
  19.300   1.0611   0.25791   0.25711  -0.1406   0.0011   1.0000
  19.450   1.0652   0.26056   0.25977  -0.1422   0.0010   1.0000
  19.600   1.0698   0.26273   0.26194  -0.1436   0.0010   1.0000
  19.750   1.0741   0.26522   0.26443  -0.1452   0.0009   1.0000
  19.900   1.0786   0.26755   0.26676  -0.1467   0.0009   1.0000
  20.050   1.0830   0.26999   0.26919  -0.1483   0.0009   1.0000
  20.200   1.0872   0.27264   0.27185  -0.1499   0.0009   1.0000
  20.350   1.0915   0.27519   0.27440  -0.1515   0.0008   1.0000
  20.500   1.0958   0.27764   0.27684  -0.1530   0.0008   1.0000
  20.650   1.0998   0.28072   0.27993  -0.1548   0.0008   1.0000
  20.800   1.1034   0.28419   0.28339  -0.1566   0.0008   1.0000
  20.950   1.1080   0.28659   0.28579  -0.1581   0.0008   1.0000
  21.100   1.1126   0.28896   0.28816  -0.1596   0.0008   1.0000
  21.250   1.1171   0.29138   0.29058  -0.1612   0.0008   1.0000
  21.400   1.1217   0.29370   0.29290  -0.1627   0.0008   1.0000
  21.550   1.1262   0.29617   0.29537  -0.1642   0.0008   1.0000
  21.700   1.1310   0.29838   0.29758  -0.1657   0.0008   1.0000
  21.850   1.1351   0.30127   0.30047  -0.1674   0.0008   1.0000
  22.000   1.1399   0.30361   0.30281  -0.1689   0.0007   1.0000
  22.150   1.1447   0.30587   0.30507  -0.1704   0.0007   1.0000
  22.300   1.1493   0.30809   0.30729  -0.1718   0.0007   1.0000
  22.450   1.1542   0.31035   0.30955  -0.1733   0.0007   1.0000
  22.600   1.1589   0.31292   0.31211  -0.1748   0.0006   1.0000
  22.750   1.1638   0.31582   0.31502  -0.1764   0.0005   1.0000
  22.900   1.1685   0.31814   0.31733  -0.1779   0.0005   1.0000
  23.050   1.1732   0.32037   0.31957  -0.1794   0.0004   1.0000
