  
       XFOIL         Version 6.99
  
 Calculated polar for: NACA 65-410                                     
  
 1 1 Reynolds number fixed          Mach number fixed         
  
 xtrf =   1.000 (top)        1.000 (bottom)  
 Mach =   0.200     Re =     2.000 e 6     Ncrit =   6.000
  
   alpha    CL        CD       CDp       CM     Top_Xtr  Bot_Xtr
  ------ -------- --------- --------- -------- -------- --------
  -5.000  -0.2182   0.00780   0.00263  -0.0805   0.7841   0.0118
  -4.850  -0.2013   0.00767   0.00247  -0.0805   0.7804   0.0126
  -4.700  -0.1840   0.00758   0.00239  -0.0806   0.7771   0.0133
  -4.550  -0.1668   0.00750   0.00230  -0.0807   0.7734   0.0138
  -4.400  -0.1496   0.00742   0.00220  -0.0807   0.7696   0.0142
  -4.100  -0.1151   0.00725   0.00199  -0.0808   0.7625   0.0150
  -3.950  -0.0978   0.00718   0.00191  -0.0809   0.7585   0.0154
  -3.800  -0.0806   0.00713   0.00183  -0.0810   0.7546   0.0157
  -3.650  -0.0634   0.00706   0.00173  -0.0811   0.7509   0.0159
  -3.500  -0.0460   0.00698   0.00164  -0.0812   0.7476   0.0162
  -3.350  -0.0287   0.00684   0.00146  -0.0813   0.7441   0.0173
  -3.200  -0.0114   0.00676   0.00137  -0.0813   0.7405   0.0186
  -3.050   0.0058   0.00670   0.00130  -0.0814   0.7370   0.0196
  -2.900   0.0233   0.00664   0.00124  -0.0816   0.7338   0.0208
  -2.750   0.0407   0.00659   0.00117  -0.0817   0.7302   0.0218
  -2.600   0.0581   0.00655   0.00112  -0.0818   0.7264   0.0225
  -2.450   0.0753   0.00652   0.00107  -0.0819   0.7229   0.0230
  -2.300   0.0928   0.00646   0.00101  -0.0820   0.7198   0.0246
  -2.150   0.1103   0.00640   0.00095  -0.0821   0.7163   0.0278
  -2.000   0.1276   0.00635   0.00091  -0.0822   0.7127   0.0306
  -1.850   0.1449   0.00632   0.00087  -0.0823   0.7092   0.0329
  -1.700   0.1624   0.00628   0.00083  -0.0825   0.7060   0.0387
  -1.550   0.1799   0.00622   0.00079  -0.0826   0.7026   0.0474
  -1.100   0.2318   0.00562   0.00065  -0.0834   0.6924   0.2224
  -0.950   0.2492   0.00529   0.00060  -0.0838   0.6891   0.3243
  -0.800   0.2665   0.00490   0.00054  -0.0843   0.6857   0.4407
  -0.650   0.2838   0.00460   0.00053  -0.0846   0.6822   0.5483
  -0.500   0.3012   0.00450   0.00053  -0.0848   0.6791   0.5881
  -0.350   0.3187   0.00444   0.00055  -0.0850   0.6762   0.6144
  -0.200   0.3363   0.00441   0.00056  -0.0851   0.6729   0.6313
  -0.050   0.3537   0.00440   0.00057  -0.0852   0.6695   0.6479
   0.100   0.3710   0.00439   0.00059  -0.0853   0.6655   0.6664
   0.250   0.3885   0.00438   0.00060  -0.0855   0.6613   0.6754
   0.400   0.4059   0.00441   0.00062  -0.0856   0.6553   0.6796
   0.550   0.4230   0.00444   0.00063  -0.0856   0.6452   0.6833
   0.700   0.4400   0.00449   0.00065  -0.0857   0.6343   0.6871
   0.850   0.4572   0.00453   0.00067  -0.0857   0.6262   0.6909
   1.000   0.4745   0.00457   0.00069  -0.0858   0.6200   0.6943
   1.150   0.4916   0.00461   0.00071  -0.0859   0.6102   0.6981
   1.300   0.5086   0.00467   0.00074  -0.0859   0.5981   0.7020
   1.450   0.5253   0.00475   0.00078  -0.0859   0.5818   0.7057
   1.750   0.5566   0.00511   0.00090  -0.0855   0.5158   0.7129
   1.900   0.5700   0.00552   0.00104  -0.0849   0.4465   0.7170
   2.050   0.5821   0.00608   0.00126  -0.0842   0.3588   0.7208
   2.350   0.6074   0.00712   0.00168  -0.0830   0.1983   0.7281
   2.500   0.6220   0.00745   0.00183  -0.0827   0.1517   0.7321
   2.800   0.6517   0.00802   0.00214  -0.0821   0.0752   0.7396
   2.950   0.6671   0.00826   0.00228  -0.0819   0.0490   0.7436
   3.100   0.6831   0.00842   0.00239  -0.0817   0.0357   0.7476
   3.250   0.6997   0.00852   0.00248  -0.0817   0.0319   0.7513
   3.400   0.7161   0.00863   0.00258  -0.0816   0.0290   0.7551
   3.550   0.7326   0.00873   0.00269  -0.0816   0.0258   0.7594
   3.700   0.7492   0.00882   0.00279  -0.0815   0.0240   0.7638
   3.850   0.7659   0.00891   0.00289  -0.0815   0.0235   0.7677
   4.000   0.7824   0.00900   0.00299  -0.0814   0.0224   0.7720
   4.150   0.7987   0.00911   0.00311  -0.0813   0.0204   0.7764
   4.300   0.8149   0.00926   0.00324  -0.0812   0.0177   0.7806
   4.450   0.8312   0.00937   0.00336  -0.0811   0.0161   0.7846
   4.600   0.8475   0.00948   0.00349  -0.0809   0.0153   0.7891
   4.750   0.8637   0.00961   0.00362  -0.0808   0.0143   0.7937
   4.900   0.8797   0.00974   0.00376  -0.0806   0.0133   0.7981
   5.050   0.8956   0.00990   0.00393  -0.0804   0.0123   0.8031
   5.200   0.9112   0.01008   0.00414  -0.0802   0.0114   0.8083
   5.350   0.9271   0.01023   0.00431  -0.0800   0.0112   0.8129
   5.500   0.9430   0.01037   0.00448  -0.0798   0.0110   0.8180
   5.650   0.9588   0.01052   0.00467  -0.0795   0.0109   0.8230
   5.800   0.9746   0.01068   0.00485  -0.0793   0.0107   0.8276
   5.950   0.9902   0.01084   0.00505  -0.0790   0.0106   0.8326
   6.100   1.0057   0.01102   0.00525  -0.0787   0.0104   0.8377
   6.250   1.0210   0.01120   0.00547  -0.0784   0.0102   0.8426
   6.400   1.0363   0.01138   0.00569  -0.0781   0.0100   0.8483
   6.550   1.0515   0.01158   0.00591  -0.0777   0.0098   0.8538
   6.700   1.0666   0.01176   0.00614  -0.0774   0.0096   0.8595
   6.850   1.0817   0.01195   0.00635  -0.0770   0.0093   0.8657
   7.000   1.0965   0.01214   0.00657  -0.0766   0.0091   0.8715
   7.150   1.1111   0.01236   0.00682  -0.0761   0.0088   0.8782
   7.300   1.1254   0.01260   0.00710  -0.0756   0.0086   0.8846
   7.450   1.1391   0.01288   0.00742  -0.0750   0.0083   0.8923
   7.600   1.1512   0.01330   0.00791  -0.0741   0.0079   0.9001
   7.750   1.1630   0.01373   0.00842  -0.0731   0.0076   0.9089
   7.900   1.1765   0.01398   0.00871  -0.0724   0.0076   0.9168
   8.050   1.1901   0.01421   0.00900  -0.0717   0.0075   0.9250
   8.200   1.2031   0.01443   0.00926  -0.0709   0.0074   0.9335
   8.350   1.2156   0.01467   0.00956  -0.0701   0.0074   0.9430
   8.500   1.2267   0.01490   0.00985  -0.0689   0.0073   0.9582
   8.800   1.2546   0.01540   0.01044  -0.0678   0.0069   1.0000
   8.950   1.2689   0.01564   0.01070  -0.0673   0.0067   1.0000
   9.100   1.2825   0.01594   0.01103  -0.0667   0.0065   1.0000
   9.250   1.2961   0.01623   0.01134  -0.0661   0.0063   1.0000
   9.400   1.3096   0.01651   0.01165  -0.0655   0.0061   1.0000
   9.550   1.3231   0.01678   0.01194  -0.0649   0.0060   1.0000
   9.700   1.3364   0.01707   0.01225  -0.0643   0.0058   1.0000
   9.850   1.3494   0.01737   0.01258  -0.0636   0.0056   1.0000
  10.000   1.3621   0.01769   0.01292  -0.0629   0.0054   1.0000
  10.150   1.3725   0.01820   0.01348  -0.0618   0.0052   1.0000
  10.300   1.3816   0.01871   0.01405  -0.0605   0.0050   1.0000
  10.450   1.3919   0.01907   0.01446  -0.0593   0.0049   1.0000
  10.600   1.4015   0.01947   0.01490  -0.0581   0.0049   1.0000
  10.750   1.4111   0.01985   0.01533  -0.0568   0.0047   1.0000
  10.900   1.4199   0.02031   0.01583  -0.0555   0.0046   1.0000
  11.050   1.4295   0.02069   0.01626  -0.0543   0.0044   1.0000
  11.200   1.4381   0.02116   0.01678  -0.0530   0.0043   1.0000
  11.350   1.4484   0.02149   0.01713  -0.0519   0.0040   1.0000
  11.500   1.4584   0.02185   0.01752  -0.0509   0.0038   1.0000
  11.650   1.4673   0.02231   0.01802  -0.0497   0.0037   1.0000
  11.800   1.4760   0.02280   0.01854  -0.0485   0.0035   1.0000
  11.950   1.4842   0.02334   0.01912  -0.0473   0.0034   1.0000
  12.100   1.4905   0.02406   0.01992  -0.0460   0.0031   1.0000
  12.250   1.4958   0.02487   0.02081  -0.0445   0.0031   1.0000
  12.400   1.5015   0.02564   0.02165  -0.0432   0.0030   1.0000
  12.550   1.5060   0.02652   0.02262  -0.0418   0.0029   1.0000
  12.700   1.5109   0.02738   0.02357  -0.0404   0.0029   1.0000
  12.850   1.5147   0.02837   0.02464  -0.0391   0.0028   1.0000
  13.000   1.5177   0.02942   0.02579  -0.0377   0.0027   1.0000
  13.150   1.5212   0.03045   0.02690  -0.0365   0.0026   1.0000
  13.300   1.5218   0.03178   0.02833  -0.0351   0.0026   1.0000
  13.450   1.5244   0.03291   0.02955  -0.0340   0.0025   1.0000
  13.600   1.5251   0.03426   0.03099  -0.0328   0.0024   1.0000
  13.750   1.5256   0.03565   0.03248  -0.0317   0.0023   1.0000
  13.900   1.5246   0.03722   0.03414  -0.0306   0.0023   1.0000
  14.050   1.5240   0.03875   0.03576  -0.0297   0.0022   1.0000
  14.200   1.5211   0.04057   0.03769  -0.0287   0.0022   1.0000
  14.350   1.5173   0.04253   0.03976  -0.0280   0.0022   1.0000
  14.500   1.5136   0.04451   0.04183  -0.0273   0.0021   1.0000
  14.650   1.5064   0.04694   0.04438  -0.0268   0.0021   1.0000
  14.800   1.5001   0.04935   0.04689  -0.0265   0.0021   1.0000
  14.950   1.4926   0.05198   0.04962  -0.0263   0.0020   1.0000
  15.100   1.4829   0.05493   0.05269  -0.0264   0.0020   1.0000
  15.250   1.4723   0.05814   0.05600  -0.0268   0.0020   1.0000
  15.400   1.4613   0.06154   0.05950  -0.0275   0.0020   1.0000
  15.550   1.4494   0.06518   0.06325  -0.0284   0.0020   1.0000
  15.700   1.4377   0.06900   0.06717  -0.0297   0.0020   1.0000
  15.850   1.4232   0.07345   0.07172  -0.0315   0.0020   1.0000
  16.000   1.4106   0.07783   0.07620  -0.0336   0.0020   1.0000
  16.150   1.3964   0.08270   0.08115  -0.0361   0.0020   1.0000
  16.300   1.3817   0.08797   0.08651  -0.0390   0.0020   1.0000
  16.450   1.3670   0.09360   0.09222  -0.0425   0.0020   1.0000
  16.600   1.3505   0.09998   0.09869  -0.0466   0.0020   1.0000
  16.750   1.3338   0.10687   0.10566  -0.0512   0.0021   1.0000
  16.900   1.3134   0.11511   0.11399  -0.0568   0.0021   1.0000
